
OS:Version,
  {04bf0c7a-0425-4097-b7b0-97b000acf87a}, !- Handle
  3.9.0;                                  !- Version Identifier

OS:ScheduleTypeLimits,
  {eecde807-9fc9-4723-90e1-dad26b329b5b}, !- Handle
  Always On Discrete Limits,              !- Name
  0,                                      !- Lower Limit Value
  1,                                      !- Upper Limit Value
  Discrete,                               !- Numeric Type
  Availability;                           !- Unit Type

OS:Site,
  {780cebd4-d970-49f6-8a67-996a6b51b6bf}, !- Handle
  Vancouver Intl AP_BC_CAN,               !- Name
  49.19,                                  !- Latitude {deg}
  -123.18,                                !- Longitude {deg}
  -8,                                     !- Time Zone {hr}
  4.3,                                    !- Elevation {m}
  City;                                   !- Terrain

OS:SimulationControl,
  {8e6d581c-8bc1-4ad1-93a1-3671638d2d44}, !- Handle
  Yes,                                    !- Do Zone Sizing Calculation
  Yes,                                    !- Do System Sizing Calculation
  Yes,                                    !- Do Plant Sizing Calculation
  No,                                     !- Run Simulation for Sizing Periods
  Yes,                                    !- Run Simulation for Weather File Run Periods
  0.04,                                   !- Loads Convergence Tolerance Value {W}
  0.2,                                    !- Temperature Convergence Tolerance Value {deltaC}
  FullInteriorAndExterior,                !- Solar Distribution
  25,                                     !- Maximum Number of Warmup Days
  6,                                      !- Minimum Number of Warmup Days
  No,                                     !- Do HVAC Sizing Simulation for Sizing Periods
  1;                                      !- Maximum Number of HVAC Sizing Simulation Passes

OS:Surface,
  {f92df46b-44ed-4bc4-a65b-b4687c727c14}, !- Handle
  Kitchen_Ceiling,                        !- Name
  RoofCeiling,                            !- Surface Type
  ,                                       !- Construction Name
  {77d3cfbe-7d30-4aaf-86db-75976a798830}, !- Space Name
  Surface,                                !- Outside Boundary Condition
  {99a3fb5b-eea2-4c47-b391-cc45f8583bd0}, !- Outside Boundary Condition Object
  NoSun,                                  !- Sun Exposure
  NoWind,                                 !- Wind Exposure
  ,                                       !- View Factor to Ground
  ,                                       !- Number of Vertices
  22.6087, 16.4427, 3.0488,               !- X,Y,Z Vertex 1 {m}
  22.6087, 22.6087, 3.0488,               !- X,Y,Z Vertex 2 {m}
  0, 22.6087, 3.0488,                     !- X,Y,Z Vertex 3 {m}
  0, 16.4427, 3.0488;                     !- X,Y,Z Vertex 4 {m}

OS:Space,
  {77d3cfbe-7d30-4aaf-86db-75976a798830}, !- Handle
  Kitchen,                                !- Name
  {f72f339a-7251-400d-abf7-c267ec6d3b23}, !- Space Type Name
  ,                                       !- Default Construction Set Name
  ,                                       !- Default Schedule Set Name
  0,                                      !- Direction of Relative North {deg}
  0,                                      !- X Origin {m}
  0,                                      !- Y Origin {m}
  0,                                      !- Z Origin {m}
  {28f49d8d-3737-4296-b4ec-3bf67b00f788}, !- Building Story Name
  {92b24a57-9e7f-460a-b7c8-3a4d16f2d32e}, !- Thermal Zone Name
  Yes,                                    !- Part of Total Floor Area
  ,                                       !- Design Specification Outdoor Air Object Name
  ,                                       !- Building Unit Name
  Autocalculate;                          !- Volume {m3}

OS:Output:Meter,
  {2c504f0f-1677-4791-a625-c9fdceff2175}, !- Handle
  ElectricityNet:Facility,                !- Name
  Hourly,                                 !- Reporting Frequency
  True,                                   !- Meter File Only
  False;                                  !- Cumulative

OS:Surface,
  {a98a3d24-77be-4dd8-9ea4-dce8b4b21baf}, !- Handle
  Dining_Wall_South,                      !- Name
  Wall,                                   !- Surface Type
  ,                                       !- Construction Name
  {d48cb50c-3a07-4ed6-baac-fe451a3f5495}, !- Space Name
  Outdoors,                               !- Outside Boundary Condition
  ,                                       !- Outside Boundary Condition Object
  SunExposed,                             !- Sun Exposure
  WindExposed,                            !- Wind Exposure
  ,                                       !- View Factor to Ground
  ,                                       !- Number of Vertices
  0, 0, 3.0488,                           !- X,Y,Z Vertex 1 {m}
  0, 0, 0,                                !- X,Y,Z Vertex 2 {m}
  22.6087, 0, 0,                          !- X,Y,Z Vertex 3 {m}
  22.6087, 0, 3.0488;                     !- X,Y,Z Vertex 4 {m}

OS:Space,
  {d48cb50c-3a07-4ed6-baac-fe451a3f5495}, !- Handle
  Dining,                                 !- Name
  {74d79ecf-87d4-4cbb-ba37-86cfde5c20bb}, !- Space Type Name
  ,                                       !- Default Construction Set Name
  ,                                       !- Default Schedule Set Name
  0,                                      !- Direction of Relative North {deg}
  0,                                      !- X Origin {m}
  0,                                      !- Y Origin {m}
  0,                                      !- Z Origin {m}
  {28f49d8d-3737-4296-b4ec-3bf67b00f788}, !- Building Story Name
  {f70f2d77-aa57-41e4-83fe-ef32b7bc49b4}, !- Thermal Zone Name
  Yes,                                    !- Part of Total Floor Area
  ,                                       !- Design Specification Outdoor Air Object Name
  ,                                       !- Building Unit Name
  Autocalculate;                          !- Volume {m3}

OS:Surface,
  {2d02da2f-1bea-4fb4-b48e-f0da184c6074}, !- Handle
  north-roof,                             !- Name
  RoofCeiling,                            !- Surface Type
  ,                                       !- Construction Name
  {a6d9b45b-2723-43c6-8355-1e3d52bed681}, !- Space Name
  Outdoors,                               !- Outside Boundary Condition
  ,                                       !- Outside Boundary Condition Object
  SunExposed,                             !- Sun Exposure
  WindExposed,                            !- Wind Exposure
  ,                                       !- View Factor to Ground
  ,                                       !- Number of Vertices
  11.3044, 18.8397, 3.7692,               !- X,Y,Z Vertex 1 {m}
  22.6087, 22.6087, 0,                    !- X,Y,Z Vertex 2 {m}
  0, 22.6087, 0;                          !- X,Y,Z Vertex 3 {m}

OS:Space,
  {a6d9b45b-2723-43c6-8355-1e3d52bed681}, !- Handle
  attic,                                  !- Name
  {73bc1497-600d-436a-a675-cd1456fcf9ac}, !- Space Type Name
  ,                                       !- Default Construction Set Name
  ,                                       !- Default Schedule Set Name
  0,                                      !- Direction of Relative North {deg}
  0,                                      !- X Origin {m}
  0,                                      !- Y Origin {m}
  3.0488,                                 !- Z Origin {m}
  {f0fd8038-c2dd-4caa-93ad-11e3bdfa35ec}, !- Building Story Name
  {5abf783b-751b-4e2f-97ca-01c991c79174}, !- Thermal Zone Name
  No,                                     !- Part of Total Floor Area
  ,                                       !- Design Specification Outdoor Air Object Name
  ,                                       !- Building Unit Name
  Autocalculate;                          !- Volume {m3}

OS:Surface,
  {628c7363-89f7-4a36-b959-b9f52e0cab7c}, !- Handle
  Kitchen_Wall_North,                     !- Name
  Wall,                                   !- Surface Type
  ,                                       !- Construction Name
  {77d3cfbe-7d30-4aaf-86db-75976a798830}, !- Space Name
  Outdoors,                               !- Outside Boundary Condition
  ,                                       !- Outside Boundary Condition Object
  SunExposed,                             !- Sun Exposure
  WindExposed,                            !- Wind Exposure
  ,                                       !- View Factor to Ground
  ,                                       !- Number of Vertices
  22.6087, 22.6087, 3.0488,               !- X,Y,Z Vertex 1 {m}
  22.6087, 22.6087, 0,                    !- X,Y,Z Vertex 2 {m}
  0, 22.6087, 0,                          !- X,Y,Z Vertex 3 {m}
  0, 22.6087, 3.0488;                     !- X,Y,Z Vertex 4 {m}

OS:Surface,
  {c8a19cd4-2eef-4dab-9ff8-b3cd1bd596db}, !- Handle
  south-roof,                             !- Name
  RoofCeiling,                            !- Surface Type
  ,                                       !- Construction Name
  {a6d9b45b-2723-43c6-8355-1e3d52bed681}, !- Space Name
  Outdoors,                               !- Outside Boundary Condition
  ,                                       !- Outside Boundary Condition Object
  SunExposed,                             !- Sun Exposure
  WindExposed,                            !- Wind Exposure
  ,                                       !- View Factor to Ground
  ,                                       !- Number of Vertices
  11.3044, 3.769, 3.7692,                 !- X,Y,Z Vertex 1 {m}
  -1.73917179908584e-034, -6.74580236774689e-017, 6.7454444242911e-017, !- X,Y,Z Vertex 2 {m}
  22.6087, -9.66039263974126e-017, 9.65988004329428e-017; !- X,Y,Z Vertex 3 {m}

OS:Surface,
  {80882478-4818-4b6c-a701-0a4f97af99ea}, !- Handle
  Dining_Wall_East,                       !- Name
  Wall,                                   !- Surface Type
  ,                                       !- Construction Name
  {d48cb50c-3a07-4ed6-baac-fe451a3f5495}, !- Space Name
  Outdoors,                               !- Outside Boundary Condition
  ,                                       !- Outside Boundary Condition Object
  SunExposed,                             !- Sun Exposure
  WindExposed,                            !- Wind Exposure
  ,                                       !- View Factor to Ground
  ,                                       !- Number of Vertices
  22.6087, 0, 3.0488,                     !- X,Y,Z Vertex 1 {m}
  22.6087, 0, 0,                          !- X,Y,Z Vertex 2 {m}
  22.6087, 16.4427, 0,                    !- X,Y,Z Vertex 3 {m}
  22.6087, 16.4427, 3.0488;               !- X,Y,Z Vertex 4 {m}

OS:Timestep,
  {79cc9340-93d4-4f72-a5ca-b64451a57564}, !- Handle
  6;                                      !- Number of Timesteps per Hour

OS:Surface,
  {8f0d9014-6f65-4cc2-a0bf-390dce688306}, !- Handle
  Dining_Wall_West,                       !- Name
  Wall,                                   !- Surface Type
  ,                                       !- Construction Name
  {d48cb50c-3a07-4ed6-baac-fe451a3f5495}, !- Space Name
  Outdoors,                               !- Outside Boundary Condition
  ,                                       !- Outside Boundary Condition Object
  SunExposed,                             !- Sun Exposure
  WindExposed,                            !- Wind Exposure
  ,                                       !- View Factor to Ground
  ,                                       !- Number of Vertices
  0, 16.4427, 3.0488,                     !- X,Y,Z Vertex 1 {m}
  0, 16.4427, 0,                          !- X,Y,Z Vertex 2 {m}
  0, 0, 0,                                !- X,Y,Z Vertex 3 {m}
  0, 0, 3.0488;                           !- X,Y,Z Vertex 4 {m}

OS:Surface,
  {cb50c49a-cbad-4855-96c4-0782e1d597c9}, !- Handle
  Dining_Floor,                           !- Name
  Floor,                                  !- Surface Type
  {3d1f658f-9ece-4b0f-a6fc-50a07bfdab0b}, !- Construction Name
  {d48cb50c-3a07-4ed6-baac-fe451a3f5495}, !- Space Name
  Foundation,                             !- Outside Boundary Condition
  {23c0e4a4-3f20-4808-b7b3-540aea9e88f8}, !- Outside Boundary Condition Object
  NoSun,                                  !- Sun Exposure
  NoWind,                                 !- Wind Exposure
  ,                                       !- View Factor to Ground
  ,                                       !- Number of Vertices
  22.6087, 16.4427, 0,                    !- X,Y,Z Vertex 1 {m}
  22.6087, 0, 0,                          !- X,Y,Z Vertex 2 {m}
  0, 0, 0,                                !- X,Y,Z Vertex 3 {m}
  0, 16.4427, 0;                          !- X,Y,Z Vertex 4 {m}

OS:Surface,
  {ff63dcc8-88a6-4e75-a736-a16ea7374519}, !- Handle
  Dining_Ceiling,                         !- Name
  RoofCeiling,                            !- Surface Type
  ,                                       !- Construction Name
  {d48cb50c-3a07-4ed6-baac-fe451a3f5495}, !- Space Name
  Surface,                                !- Outside Boundary Condition
  {60fffe8d-e21f-43c1-9f06-30986f76ee3e}, !- Outside Boundary Condition Object
  NoSun,                                  !- Sun Exposure
  NoWind,                                 !- Wind Exposure
  ,                                       !- View Factor to Ground
  ,                                       !- Number of Vertices
  22.6087, 0, 3.0488,                     !- X,Y,Z Vertex 1 {m}
  22.6087, 16.4427, 3.0488,               !- X,Y,Z Vertex 2 {m}
  0, 16.4427, 3.0488,                     !- X,Y,Z Vertex 3 {m}
  0, 0, 3.0488;                           !- X,Y,Z Vertex 4 {m}

OS:Surface,
  {15bdfbf5-28b3-4f6b-939c-af2a310fc326}, !- Handle
  west-roof,                              !- Name
  RoofCeiling,                            !- Surface Type
  ,                                       !- Construction Name
  {a6d9b45b-2723-43c6-8355-1e3d52bed681}, !- Space Name
  Outdoors,                               !- Outside Boundary Condition
  ,                                       !- Outside Boundary Condition Object
  SunExposed,                             !- Sun Exposure
  WindExposed,                            !- Wind Exposure
  ,                                       !- View Factor to Ground
  ,                                       !- Number of Vertices
  11.3044, 18.8397, 3.7692,               !- X,Y,Z Vertex 1 {m}
  -1.57308521999447e-016, 22.6087, 4.71792013183315e-016, !- X,Y,Z Vertex 2 {m}
  -1.1417329679585e-016, -2.17720723655857e-033, 3.42422958797359e-016, !- X,Y,Z Vertex 3 {m}
  11.3044, 3.769, 3.7692;                 !- X,Y,Z Vertex 4 {m}

OS:Surface,
  {b8b44463-bcda-4673-8d04-2c845d134292}, !- Handle
  Kitchen_Wall_West,                      !- Name
  Wall,                                   !- Surface Type
  ,                                       !- Construction Name
  {77d3cfbe-7d30-4aaf-86db-75976a798830}, !- Space Name
  Outdoors,                               !- Outside Boundary Condition
  ,                                       !- Outside Boundary Condition Object
  SunExposed,                             !- Sun Exposure
  WindExposed,                            !- Wind Exposure
  ,                                       !- View Factor to Ground
  ,                                       !- Number of Vertices
  0, 22.6087, 3.0488,                     !- X,Y,Z Vertex 1 {m}
  0, 22.6087, 0,                          !- X,Y,Z Vertex 2 {m}
  0, 16.4427, 0,                          !- X,Y,Z Vertex 3 {m}
  0, 16.4427, 3.0488;                     !- X,Y,Z Vertex 4 {m}

OS:Surface,
  {18d25d92-d723-4017-980c-f20184bc1dd2}, !- Handle
  Dining_Wall_North-PPAutoCreateOther,    !- Name
  Wall,                                   !- Surface Type
  ,                                       !- Construction Name
  {77d3cfbe-7d30-4aaf-86db-75976a798830}, !- Space Name
  Surface,                                !- Outside Boundary Condition
  {1bf4d799-b7fc-481e-b40e-29c78d189519}, !- Outside Boundary Condition Object
  NoSun,                                  !- Sun Exposure
  NoWind,                                 !- Wind Exposure
  ,                                       !- View Factor to Ground
  ,                                       !- Number of Vertices
  0, 16.4427, 3.0488,                     !- X,Y,Z Vertex 1 {m}
  0, 16.4427, 0,                          !- X,Y,Z Vertex 2 {m}
  22.6087, 16.4427, 0,                    !- X,Y,Z Vertex 3 {m}
  22.6087, 16.4427, 3.0488;               !- X,Y,Z Vertex 4 {m}

OS:ShadowCalculation,
  {137b265b-7d90-4b85-83d6-6f49d95bdf56}, !- Handle
  PolygonClipping,                        !- Shading Calculation Method
  ,                                       !- Shading Calculation Update Frequency Method
  7,                                      !- Shading Calculation Update Frequency
  15000,                                  !- Maximum Figures in Shadow Overlap Calculations
  ,                                       !- Polygon Clipping Algorithm
  512,                                    !- Pixel Counting Resolution
  ,                                       !- Sky Diffuse Modeling Algorithm
  No,                                     !- Output External Shading Calculation Results
  No,                                     !- Disable Self-Shading Within Shading Zone Groups
  No;                                     !- Disable Self-Shading From Shading Zone Groups to Other Zones

OS:Surface,
  {60fffe8d-e21f-43c1-9f06-30986f76ee3e}, !- Handle
  attic-floor-dinning,                    !- Name
  Floor,                                  !- Surface Type
  ,                                       !- Construction Name
  {a6d9b45b-2723-43c6-8355-1e3d52bed681}, !- Space Name
  Surface,                                !- Outside Boundary Condition
  {ff63dcc8-88a6-4e75-a736-a16ea7374519}, !- Outside Boundary Condition Object
  NoSun,                                  !- Sun Exposure
  NoWind,                                 !- Wind Exposure
  ,                                       !- View Factor to Ground
  ,                                       !- Number of Vertices
  22.6087, 16.4427, 0,                    !- X,Y,Z Vertex 1 {m}
  22.6087, 0, 0,                          !- X,Y,Z Vertex 2 {m}
  0, 0, 0,                                !- X,Y,Z Vertex 3 {m}
  0, 16.4427, 0;                          !- X,Y,Z Vertex 4 {m}

OS:Surface,
  {99a3fb5b-eea2-4c47-b391-cc45f8583bd0}, !- Handle
  attic-floor-kitchen,                    !- Name
  Floor,                                  !- Surface Type
  ,                                       !- Construction Name
  {a6d9b45b-2723-43c6-8355-1e3d52bed681}, !- Space Name
  Surface,                                !- Outside Boundary Condition
  {f92df46b-44ed-4bc4-a65b-b4687c727c14}, !- Outside Boundary Condition Object
  NoSun,                                  !- Sun Exposure
  NoWind,                                 !- Wind Exposure
  ,                                       !- View Factor to Ground
  ,                                       !- Number of Vertices
  22.6087, 22.6087, 0,                    !- X,Y,Z Vertex 1 {m}
  22.6087, 16.4427, 0,                    !- X,Y,Z Vertex 2 {m}
  0, 16.4427, 0,                          !- X,Y,Z Vertex 3 {m}
  0, 22.6087, 0;                          !- X,Y,Z Vertex 4 {m}

OS:Surface,
  {f5f1a811-415b-4d09-b2da-ccbe1f40d3a2}, !- Handle
  Kitchen_Floor,                          !- Name
  Floor,                                  !- Surface Type
  {3d1f658f-9ece-4b0f-a6fc-50a07bfdab0b}, !- Construction Name
  {77d3cfbe-7d30-4aaf-86db-75976a798830}, !- Space Name
  Foundation,                             !- Outside Boundary Condition
  {23c0e4a4-3f20-4808-b7b3-540aea9e88f8}, !- Outside Boundary Condition Object
  NoSun,                                  !- Sun Exposure
  NoWind,                                 !- Wind Exposure
  ,                                       !- View Factor to Ground
  ,                                       !- Number of Vertices
  22.6087, 22.6087, 0,                    !- X,Y,Z Vertex 1 {m}
  22.6087, 16.4427, 0,                    !- X,Y,Z Vertex 2 {m}
  0, 16.4427, 0,                          !- X,Y,Z Vertex 3 {m}
  0, 22.6087, 0;                          !- X,Y,Z Vertex 4 {m}

OS:RunPeriod,
  {3c4ccfb1-e715-4662-9c52-be1b0a138576}, !- Handle
  Run Period 1,                           !- Name
  1,                                      !- Begin Month
  1,                                      !- Begin Day of Month
  12,                                     !- End Month
  31,                                     !- End Day of Month
  No,                                     !- Use Weather File Holidays and Special Days
  No,                                     !- Use Weather File Daylight Saving Period
  No,                                     !- Apply Weekend Holiday Rule
  Yes,                                    !- Use Weather File Rain Indicators
  Yes,                                    !- Use Weather File Snow Indicators
  1;                                      !- Number of Times Runperiod to be Repeated

OS:YearDescription,
  {7190988a-56b7-49e4-be5c-e6199b78fff0}, !- Handle
  ,                                       !- Calendar Year
  Sunday;                                 !- Day of Week for Start Day

OS:HeatBalanceAlgorithm,
  {64382367-5719-4453-8c29-e1a70cef6d9c}, !- Handle
  ConductionTransferFunction,             !- Algorithm
  200;                                    !- Surface Temperature Upper Limit {C}

OS:Surface,
  {1bf4d799-b7fc-481e-b40e-29c78d189519}, !- Handle
  Dining_Wall_North,                      !- Name
  Wall,                                   !- Surface Type
  ,                                       !- Construction Name
  {d48cb50c-3a07-4ed6-baac-fe451a3f5495}, !- Space Name
  Surface,                                !- Outside Boundary Condition
  {18d25d92-d723-4017-980c-f20184bc1dd2}, !- Outside Boundary Condition Object
  NoSun,                                  !- Sun Exposure
  NoWind,                                 !- Wind Exposure
  ,                                       !- View Factor to Ground
  ,                                       !- Number of Vertices
  22.6087, 16.4427, 3.0488,               !- X,Y,Z Vertex 1 {m}
  22.6087, 16.4427, 0,                    !- X,Y,Z Vertex 2 {m}
  0, 16.4427, 0,                          !- X,Y,Z Vertex 3 {m}
  0, 16.4427, 3.0488;                     !- X,Y,Z Vertex 4 {m}

OS:Output:Meter,
  {691ea4a2-e815-4852-aa14-ac1ce9bfcf5c}, !- Handle
  NaturalGas:Facility,                    !- Name
  Hourly,                                 !- Reporting Frequency
  True,                                   !- Meter File Only
  False;                                  !- Cumulative

OS:ConvergenceLimits,
  {a71a34c7-4772-4b25-9024-f2d758143793}, !- Handle
  1,                                      !- Minimum System Timestep {minutes}
  20;                                     !- Maximum HVAC Iterations

OS:Output:Meter,
  {ceae7f14-5ab7-4a91-9729-89b3f9655715}, !- Handle
  Electricity:Facility,                   !- Name
  Hourly,                                 !- Reporting Frequency
  True,                                   !- Meter File Only
  False;                                  !- Cumulative

OS:Surface,
  {c948d197-ce91-4318-a26c-8d47d0d034ce}, !- Handle
  Kitchen_Wall_East,                      !- Name
  Wall,                                   !- Surface Type
  ,                                       !- Construction Name
  {77d3cfbe-7d30-4aaf-86db-75976a798830}, !- Space Name
  Outdoors,                               !- Outside Boundary Condition
  ,                                       !- Outside Boundary Condition Object
  SunExposed,                             !- Sun Exposure
  WindExposed,                            !- Wind Exposure
  ,                                       !- View Factor to Ground
  ,                                       !- Number of Vertices
  22.6087, 16.4427, 3.0488,               !- X,Y,Z Vertex 1 {m}
  22.6087, 16.4427, 0,                    !- X,Y,Z Vertex 2 {m}
  22.6087, 22.6087, 0,                    !- X,Y,Z Vertex 3 {m}
  22.6087, 22.6087, 3.0488;               !- X,Y,Z Vertex 4 {m}

OS:Building,
  {57a0612b-80fa-4a4f-8704-b192e6d39f92}, !- Handle
  FullServiceRestaurant,                  !- Name
  ,                                       !- Building Sector Type
  0,                                      !- North Axis {deg}
  ,                                       !- Nominal Floor to Floor Height {m}
  ,                                       !- Space Type Name
  {8aca2276-62d2-4741-b44a-375c5b319af9}, !- Default Construction Set Name
  ,                                       !- Default Schedule Set Name
  1,                                      !- Standards Number of Stories
  1,                                      !- Standards Number of Above Ground Stories
  NECB2011,                               !- Standards Template
  FullServiceRestaurant;                  !- Standards Building Type

OS:Surface,
  {2634f8db-e6bf-4750-b638-5aac0aaf0b7c}, !- Handle
  east-roof,                              !- Name
  RoofCeiling,                            !- Surface Type
  ,                                       !- Construction Name
  {a6d9b45b-2723-43c6-8355-1e3d52bed681}, !- Space Name
  Outdoors,                               !- Outside Boundary Condition
  ,                                       !- Outside Boundary Condition Object
  SunExposed,                             !- Sun Exposure
  WindExposed,                            !- Wind Exposure
  ,                                       !- View Factor to Ground
  ,                                       !- Number of Vertices
  11.3044, 3.769, 3.7692,                 !- X,Y,Z Vertex 1 {m}
  22.6087, 0, 0,                          !- X,Y,Z Vertex 2 {m}
  22.6087, 22.6087, 0,                    !- X,Y,Z Vertex 3 {m}
  11.3044, 18.8397, 3.7692;               !- X,Y,Z Vertex 4 {m}

OS:Facility,
  {8630d1c8-2694-4622-ac46-ec75f253c7ea}; !- Handle

OS:BuildingStory,
  {28f49d8d-3737-4296-b4ec-3bf67b00f788}, !- Handle
  Building Story 1,                       !- Name
  0,                                      !- Nominal Z Coordinate {m}
  ,                                       !- Nominal Floor to Floor Height {m}
  ,                                       !- Default Construction Set Name
  ,                                       !- Default Schedule Set Name
  ;                                       !- Group Rendering Name

OS:BuildingStory,
  {f0fd8038-c2dd-4caa-93ad-11e3bdfa35ec}, !- Handle
  Building Story 2,                       !- Name
  3.0488,                                 !- Nominal Z Coordinate {m}
  ,                                       !- Nominal Floor to Floor Height {m}
  ,                                       !- Default Construction Set Name
  ,                                       !- Default Schedule Set Name
  ;                                       !- Group Rendering Name

OS:WeatherFile,
  {591e076f-b1ff-4f98-9dd0-4f1873bc12ec}, !- Handle
  Vancouver Intl AP,                      !- City
  BC,                                     !- State Province Region
  CAN,                                    !- Country
  CWEC2020,                               !- Data Source
  718920,                                 !- WMO Number
  49.19,                                  !- Latitude {deg}
  -123.18,                                !- Longitude {deg}
  -8,                                     !- Time Zone {hr}
  4.3,                                    !- Elevation {m}
  /home/osdev/openstudio-standards/data/weather/CAN_BC_Vancouver.Intl.AP.718920_CWEC2020.epw, !- Url
  9816C2DC,                               !- Checksum
  ,                                       !- Start Date Actual Year
  Sunday;                                 !- Start Day of Week

OS:Site:WaterMainsTemperature,
  {d4488da0-43af-4769-8758-7b0d3a753888}, !- Handle
  Correlation,                            !- Calculation Method
  ,                                       !- Temperature Schedule Name
  10.55,                                  !- Annual Average Outdoor Air Temperature {C}
  14.4;                                   !- Maximum Difference In Monthly Average Outdoor Air Temperatures {deltaC}

OS:Site:GroundTemperature:BuildingSurface,
  {e1936907-687d-474b-be93-754a3a0b3ae4}, !- Handle
  19.527,                                 !- January Ground Temperature {C}
  19.502,                                 !- February Ground Temperature {C}
  19.536,                                 !- March Ground Temperature {C}
  19.598,                                 !- April Ground Temperature {C}
  20.002,                                 !- May Ground Temperature {C}
  21.64,                                  !- June Ground Temperature {C}
  22.225,                                 !- July Ground Temperature {C}
  22.375,                                 !- August Ground Temperature {C}
  21.449,                                 !- September Ground Temperature {C}
  20.121,                                 !- October Ground Temperature {C}
  19.802,                                 !- November Ground Temperature {C}
  19.633;                                 !- December Ground Temperature {C}

OS:SpaceType,
  {73bc1497-600d-436a-a675-cd1456fcf9ac}, !- Handle
  Space Function - undefined -,           !- Name
  ,                                       !- Default Construction Set Name
  {dca16e21-8264-4502-a220-b8b823305067}, !- Default Schedule Set Name
  {1c800a15-b3f1-40bc-9a75-7b04eaa70de2}, !- Group Rendering Name
  {7fe1c5dd-8de9-45a3-827b-225e12b1e37f}, !- Design Specification Outdoor Air Object Name
  ,                                       !- Standards Template
  Space Function,                         !- Standards Building Type
  - undefined -;                          !- Standards Space Type

OS:Rendering:Color,
  {2d245aba-2197-4e89-8d94-0ab8b7d48165}, !- Handle
  Space Function - undefined -,           !- Name
  255,                                    !- Rendering Red Value
  255,                                    !- Rendering Green Value
  255;                                    !- Rendering Blue Value

OS:SpaceType,
  {74d79ecf-87d4-4cbb-ba37-86cfde5c20bb}, !- Handle
  Space Function Dining - family space,   !- Name
  ,                                       !- Default Construction Set Name
  {858c1961-a043-4892-a640-429819defc3c}, !- Default Schedule Set Name
  {73c07042-4c9d-4a60-8669-ff0858cc7684}, !- Group Rendering Name
  {96e5f06a-26bf-4979-a2f7-f7bdfe99782f}, !- Design Specification Outdoor Air Object Name
  ,                                       !- Standards Template
  Space Function,                         !- Standards Building Type
  Dining - family space;                  !- Standards Space Type

OS:Rendering:Color,
  {7a9e8539-9cb5-4ca2-908b-238e9d319c5c}, !- Handle
  Space Function Dining - family space,   !- Name
  255,                                    !- Rendering Red Value
  255,                                    !- Rendering Green Value
  255;                                    !- Rendering Blue Value

OS:SpaceType,
  {f72f339a-7251-400d-abf7-c267ec6d3b23}, !- Handle
  Space Function Food preparation,        !- Name
  ,                                       !- Default Construction Set Name
  {c092f047-d465-4cd5-b5d4-671694e1e5fc}, !- Default Schedule Set Name
  {ae4bc2da-2c3f-43cd-85cd-5a651c50cf34}, !- Group Rendering Name
  {55e1aab4-9ff3-4ed7-8001-9ccb5b201284}, !- Design Specification Outdoor Air Object Name
  ,                                       !- Standards Template
  Space Function,                         !- Standards Building Type
  Food preparation;                       !- Standards Space Type

OS:Rendering:Color,
  {03141d71-f229-4289-b14b-a6ad922f5827}, !- Handle
  Space Function Food preparation,        !- Name
  255,                                    !- Rendering Red Value
  255,                                    !- Rendering Green Value
  255;                                    !- Rendering Blue Value

OS:SizingPeriod:DesignDay,
  {afed7242-01be-45a1-8f14-56e4d297fc03}, !- Handle
  Vancouver Intl AP Ann Clg .4% Condns DB=>MWB, !- Name
  25.1,                                   !- Maximum Dry-Bulb Temperature {C}
  7.7,                                    !- Daily Dry-Bulb Temperature Range {deltaC}
  101273,                                 !- Barometric Pressure {Pa}
  3.7,                                    !- Wind Speed {m/s}
  290,                                    !- Wind Direction {deg}
  ,                                       !- Sky Clearness
  No,                                     !- Rain Indicator
  No,                                     !- Snow Indicator
  21,                                     !- Day of Month
  7,                                      !- Month
  SummerDesignDay,                        !- Day Type
  No,                                     !- Daylight Saving Time Indicator
  Wetbulb,                                !- Humidity Condition Type
  ,                                       !- Humidity Condition Day Schedule Name
  18.5,                                   !- Wetbulb or DewPoint at Maximum Dry-Bulb {C}
  ,                                       !- Humidity Ratio at Maximum Dry-Bulb {kgWater/kgDryAir}
  ,                                       !- Enthalpy at Maximum Dry-Bulb {J/kg}
  DefaultMultipliers,                     !- Dry-Bulb Temperature Range Modifier Type
  ,                                       !- Dry-Bulb Temperature Range Modifier Day Schedule Name
  ASHRAETau,                              !- Solar Model Indicator
  ,                                       !- Beam Solar Day Schedule Name
  ,                                       !- Diffuse Solar Day Schedule Name
  0.359,                                  !- ASHRAE Clear Sky Optical Depth for Beam Irradiance {dimensionless}
  2.485;                                  !- ASHRAE Clear Sky Optical Depth for Diffuse Irradiance {dimensionless}

OS:SizingPeriod:DesignDay,
  {b3facbe2-1e46-4c93-a13b-53ea8aec105d}, !- Handle
  Vancouver Intl AP Ann Clg .4% Condns WB=>MDB, !- Name
  23.8,                                   !- Maximum Dry-Bulb Temperature {C}
  7.7,                                    !- Daily Dry-Bulb Temperature Range {deltaC}
  101273,                                 !- Barometric Pressure {Pa}
  3.7,                                    !- Wind Speed {m/s}
  290,                                    !- Wind Direction {deg}
  ,                                       !- Sky Clearness
  No,                                     !- Rain Indicator
  No,                                     !- Snow Indicator
  21,                                     !- Day of Month
  7,                                      !- Month
  SummerDesignDay,                        !- Day Type
  No,                                     !- Daylight Saving Time Indicator
  Wetbulb,                                !- Humidity Condition Type
  ,                                       !- Humidity Condition Day Schedule Name
  19.2,                                   !- Wetbulb or DewPoint at Maximum Dry-Bulb {C}
  ,                                       !- Humidity Ratio at Maximum Dry-Bulb {kgWater/kgDryAir}
  ,                                       !- Enthalpy at Maximum Dry-Bulb {J/kg}
  DefaultMultipliers,                     !- Dry-Bulb Temperature Range Modifier Type
  ,                                       !- Dry-Bulb Temperature Range Modifier Day Schedule Name
  ASHRAETau,                              !- Solar Model Indicator
  ,                                       !- Beam Solar Day Schedule Name
  ,                                       !- Diffuse Solar Day Schedule Name
  0.359,                                  !- ASHRAE Clear Sky Optical Depth for Beam Irradiance {dimensionless}
  2.485;                                  !- ASHRAE Clear Sky Optical Depth for Diffuse Irradiance {dimensionless}

OS:SizingPeriod:DesignDay,
  {f311d092-fd48-4f85-9a99-ec229dc295d1}, !- Handle
  Vancouver Intl AP Ann Htg 99.6% Condns DB, !- Name
  -5.1,                                   !- Maximum Dry-Bulb Temperature {C}
  0,                                      !- Daily Dry-Bulb Temperature Range {deltaC}
  101273,                                 !- Barometric Pressure {Pa}
  3,                                      !- Wind Speed {m/s}
  100,                                    !- Wind Direction {deg}
  0,                                      !- Sky Clearness
  No,                                     !- Rain Indicator
  No,                                     !- Snow Indicator
  21,                                     !- Day of Month
  12,                                     !- Month
  WinterDesignDay,                        !- Day Type
  No,                                     !- Daylight Saving Time Indicator
  Wetbulb,                                !- Humidity Condition Type
  ,                                       !- Humidity Condition Day Schedule Name
  -5.1,                                   !- Wetbulb or DewPoint at Maximum Dry-Bulb {C}
  ,                                       !- Humidity Ratio at Maximum Dry-Bulb {kgWater/kgDryAir}
  ,                                       !- Enthalpy at Maximum Dry-Bulb {J/kg}
  DefaultMultipliers,                     !- Dry-Bulb Temperature Range Modifier Type
  ,                                       !- Dry-Bulb Temperature Range Modifier Day Schedule Name
  ASHRAEClearSky;                         !- Solar Model Indicator

OS:ClimateZones,
  {e23bd52e-e5b7-4f55-8c7e-87e18aee7c05}, !- Handle
  ASHRAE,                                 !- Climate Zone Institution Name 1
  ANSI/ASHRAE Standard 169,               !- Climate Zone Document Name 1
  2006,                                   !- Climate Zone Document Year 1
  4C;                                     !- Climate Zone Value 1

OS:Site:GroundTemperature:Shallow,
  {817fa073-c84b-4781-8686-6ef40084c6ce}, !- Handle
  4.6,                                    !- January Surface Ground Temperature {C}
  4.1,                                    !- February Surface Ground Temperature {C}
  5.1,                                    !- March Surface Ground Temperature {C}
  6.7,                                    !- April Surface Ground Temperature {C}
  10.9,                                   !- May Surface Ground Temperature {C}
  14.2,                                   !- June Surface Ground Temperature {C}
  16.4,                                   !- July Surface Ground Temperature {C}
  17.1,                                   !- August Surface Ground Temperature {C}
  15.9,                                   !- September Surface Ground Temperature {C}
  13.4,                                   !- October Surface Ground Temperature {C}
  10,                                     !- November Surface Ground Temperature {C}
  6.9;                                    !- December Surface Ground Temperature {C}

OS:Site:GroundTemperature:Deep,
  {ff45cbb6-db37-4cdc-97f6-6dd501f5fe73}, !- Handle
  8.6,                                    !- January Deep Ground Temperature {C}
  7.5,                                    !- February Deep Ground Temperature {C}
  7.3,                                    !- March Deep Ground Temperature {C}
  7.6,                                    !- April Deep Ground Temperature {C}
  9.2,                                    !- May Deep Ground Temperature {C}
  10.9,                                   !- June Deep Ground Temperature {C}
  12.5,                                   !- July Deep Ground Temperature {C}
  13.6,                                   !- August Deep Ground Temperature {C}
  13.8,                                   !- September Deep Ground Temperature {C}
  13.2,                                   !- October Deep Ground Temperature {C}
  11.8,                                   !- November Deep Ground Temperature {C}
  10.2;                                   !- December Deep Ground Temperature {C}

OS:Site:GroundTemperature:FCfactorMethod,
  {74f7f727-106c-47b0-a0e6-d6e65a0bfcdf}, !- Handle
  10.2,                                   !- January Ground Temperature {C}
  6.9,                                    !- February Ground Temperature {C}
  3.9,                                    !- March Ground Temperature {C}
  4.2,                                    !- April Ground Temperature {C}
  5.1,                                    !- May Ground Temperature {C}
  6.7,                                    !- June Ground Temperature {C}
  9.5,                                    !- July Ground Temperature {C}
  13,                                     !- August Ground Temperature {C}
  15.9,                                   !- September Ground Temperature {C}
  18.1,                                   !- October Ground Temperature {C}
  18.3,                                   !- November Ground Temperature {C}
  14.8;                                   !- December Ground Temperature {C}

OS:AdditionalProperties,
  {e111f2fd-f811-4be0-beae-94c82b77290b}, !- Handle
  {a6d9b45b-2723-43c6-8355-1e3d52bed681}, !- Object Name
  space_conditioning_category,            !- Feature Name 1
  String,                                 !- Feature Data Type 1
  unconditioned;                          !- Feature Value 1

OS:AdditionalProperties,
  {1b1a8f57-6dcc-41f1-9987-dc1d0d514406}, !- Handle
  {d48cb50c-3a07-4ed6-baac-fe451a3f5495}, !- Object Name
  space_conditioning_category,            !- Feature Name 1
  String,                                 !- Feature Data Type 1
  nonresconditioned;                      !- Feature Value 1

OS:AdditionalProperties,
  {4af3f265-1ce4-40d3-adbf-aa3ecdef5dd8}, !- Handle
  {77d3cfbe-7d30-4aaf-86db-75976a798830}, !- Object Name
  space_conditioning_category,            !- Feature Name 1
  String,                                 !- Feature Data Type 1
  nonresconditioned;                      !- Feature Value 1

OS:AdditionalProperties,
  {b1d34366-4093-4007-96d7-329434107862}, !- Handle
  {57a0612b-80fa-4a4f-8704-b192e6d39f92}; !- Object Name

OS:Rendering:Color,
  {91cb3ffb-a421-4ecc-b08e-89898ff27767}, !- Handle
  Space Function - undefined - 1,         !- Name
  255,                                    !- Rendering Red Value
  255,                                    !- Rendering Green Value
  255;                                    !- Rendering Blue Value

OS:DesignSpecification:OutdoorAir,
  {7fe1c5dd-8de9-45a3-827b-225e12b1e37f}, !- Handle
  Space Function - undefined - Ventilation, !- Name
  ,                                       !- Outdoor Air Method
  0,                                      !- Outdoor Air Flow per Person {m3/s-person}
  0,                                      !- Outdoor Air Flow per Floor Area {m3/s-m2}
  ,                                       !- Outdoor Air Flow Rate {m3/s}
  0,                                      !- Outdoor Air Flow Air Changes per Hour {1/hr}
  ;                                       !- Outdoor Air Flow Rate Fraction Schedule Name

OS:DefaultScheduleSet,
  {dca16e21-8264-4502-a220-b8b823305067}, !- Handle
  Space Function - undefined - Schedule Set, !- Name
  ,                                       !- Hours of Operation Schedule Name
  ,                                       !- Number of People Schedule Name
  ,                                       !- People Activity Level Schedule Name
  ,                                       !- Lighting Schedule Name
  ,                                       !- Electric Equipment Schedule Name
  ,                                       !- Gas Equipment Schedule Name
  ,                                       !- Hot Water Equipment Schedule Name
  ,                                       !- Infiltration Schedule Name
  ,                                       !- Steam Equipment Schedule Name
  ;                                       !- Other Equipment Schedule Name

OS:ThermostatSetpoint:DualSetpoint,
  {9c48dc1c-bd35-4f05-98c6-ac435e5d1a72}, !- Handle
  Space Function - undefined - Thermostat; !- Name

OS:Rendering:Color,
  {d4e8c64e-0871-45d1-8f4f-57ade04bfd80}, !- Handle
  Space Function Dining - family space 1, !- Name
  255,                                    !- Rendering Red Value
  255,                                    !- Rendering Green Value
  255;                                    !- Rendering Blue Value

OS:People:Definition,
  {2263f4d8-b132-42a0-a13b-2b9cd7a13ebb}, !- Handle
  Space Function Dining - family space People Definition, !- Name
  People/Area,                            !- Number of People Calculation Method
  ,                                       !- Number of People {people}
  0.0999967277712333,                     !- People per Space Floor Area {person/m2}
  ,                                       !- Space Floor Area per Person {m2/person}
  0.3;                                    !- Fraction Radiant

OS:People,
  {95252614-c25d-41a9-acdb-fc243d40aa46}, !- Handle
  Space Function Dining - family space People, !- Name
  {2263f4d8-b132-42a0-a13b-2b9cd7a13ebb}, !- People Definition Name
  {74d79ecf-87d4-4cbb-ba37-86cfde5c20bb}, !- Space or SpaceType Name
  ,                                       !- Number of People Schedule Name
  ,                                       !- Activity Level Schedule Name
  ,                                       !- Surface Name/Angle Factor List Name
  {176fe952-7a8e-4f07-970a-e5415ff45f37}, !- Work Efficiency Schedule Name
  {2d869b62-eabb-4100-866b-beb09723e6ba}, !- Clothing Insulation Schedule Name
  {05bb4b10-4fe8-452f-b342-38a10d5503b7}, !- Air Velocity Schedule Name
  1;                                      !- Multiplier

OS:Schedule:Ruleset,
  {2d869b62-eabb-4100-866b-beb09723e6ba}, !- Handle
  Clothing Schedule,                      !- Name
  {f7ec7fdb-6ff3-4864-a2c5-1ea0e982a8b7}, !- Schedule Type Limits Name
  {7d2fe2b5-d3fb-453c-a022-84238fa551b4}; !- Default Day Schedule Name

OS:Schedule:Day,
  {7d2fe2b5-d3fb-453c-a022-84238fa551b4}, !- Handle
  Clothing Schedule Default Winter Clothes, !- Name
  {f7ec7fdb-6ff3-4864-a2c5-1ea0e982a8b7}, !- Schedule Type Limits Name
  ,                                       !- Interpolate to Timestep
  24,                                     !- Hour 1
  0,                                      !- Minute 1
  1;                                      !- Value Until Time 1

OS:Schedule:Rule,
  {4a77927c-59da-4756-8921-02bc9b61b25e}, !- Handle
  Schedule Rule 1,                        !- Name
  {2d869b62-eabb-4100-866b-beb09723e6ba}, !- Schedule Ruleset Name
  0,                                      !- Rule Order
  {edb8e4c5-e81f-476f-800a-487c74365ea5}, !- Day Schedule Name
  ,                                       !- Apply Sunday
  ,                                       !- Apply Monday
  ,                                       !- Apply Tuesday
  ,                                       !- Apply Wednesday
  ,                                       !- Apply Thursday
  ,                                       !- Apply Friday
  ,                                       !- Apply Saturday
  DateRange,                              !- Date Specification Type
  5,                                      !- Start Month
  1,                                      !- Start Day
  9,                                      !- End Month
  30;                                     !- End Day

OS:Schedule:Day,
  {edb8e4c5-e81f-476f-800a-487c74365ea5}, !- Handle
  Clothing Schedule Summer Clothes,       !- Name
  {f7ec7fdb-6ff3-4864-a2c5-1ea0e982a8b7}, !- Schedule Type Limits Name
  ,                                       !- Interpolate to Timestep
  24,                                     !- Hour 1
  0,                                      !- Minute 1
  0.5;                                    !- Value Until Time 1

OS:ScheduleTypeLimits,
  {f7ec7fdb-6ff3-4864-a2c5-1ea0e982a8b7}, !- Handle
  ClothingInsulation,                     !- Name
  0,                                      !- Lower Limit Value
  ,                                       !- Upper Limit Value
  Continuous,                             !- Numeric Type
  ClothingInsulation;                     !- Unit Type

OS:Schedule:Ruleset,
  {05bb4b10-4fe8-452f-b342-38a10d5503b7}, !- Handle
  Air Velocity Schedule,                  !- Name
  {a0bf4307-8337-4272-9eeb-98d49f63674a}, !- Schedule Type Limits Name
  {f3390b88-0a31-46c5-8395-48e04563679e}; !- Default Day Schedule Name

OS:Schedule:Day,
  {f3390b88-0a31-46c5-8395-48e04563679e}, !- Handle
  Air Velocity Schedule Default,          !- Name
  {a0bf4307-8337-4272-9eeb-98d49f63674a}, !- Schedule Type Limits Name
  ,                                       !- Interpolate to Timestep
  24,                                     !- Hour 1
  0,                                      !- Minute 1
  0.2;                                    !- Value Until Time 1

OS:ScheduleTypeLimits,
  {a0bf4307-8337-4272-9eeb-98d49f63674a}, !- Handle
  Velocity,                               !- Name
  0,                                      !- Lower Limit Value
  ,                                       !- Upper Limit Value
  Continuous,                             !- Numeric Type
  Velocity;                               !- Unit Type

OS:Schedule:Ruleset,
  {176fe952-7a8e-4f07-970a-e5415ff45f37}, !- Handle
  Work Efficiency Schedule,               !- Name
  {5c74a3d1-850b-4f0d-8a91-2ae35d9ab2f9}, !- Schedule Type Limits Name
  {b4fdf584-73a8-45fc-88cd-709ab7c79794}; !- Default Day Schedule Name

OS:Schedule:Day,
  {b4fdf584-73a8-45fc-88cd-709ab7c79794}, !- Handle
  Work Efficiency Schedule Default,       !- Name
  {5c74a3d1-850b-4f0d-8a91-2ae35d9ab2f9}, !- Schedule Type Limits Name
  ,                                       !- Interpolate to Timestep
  24,                                     !- Hour 1
  0,                                      !- Minute 1
  0;                                      !- Value Until Time 1

OS:ScheduleTypeLimits,
  {5c74a3d1-850b-4f0d-8a91-2ae35d9ab2f9}, !- Handle
  Fractional,                             !- Name
  0,                                      !- Lower Limit Value
  1,                                      !- Upper Limit Value
  Continuous;                             !- Numeric Type

OS:Lights:Definition,
  {a22b6326-37e0-4996-8e8a-3c3af6b3801b}, !- Handle
  Space Function Dining - family space Lights Definition, !- Name
  Watts/Area,                             !- Design Level Calculation Method
  ,                                       !- Lighting Level {W}
  9.59992009949298,                       !- Watts per Space Floor Area {W/m2}
  ,                                       !- Watts per Person {W/person}
  0.5,                                    !- Fraction Radiant
  0.2;                                    !- Fraction Visible

OS:Lights,
  {cdbf876e-df16-496e-8427-20a3176f7afc}, !- Handle
  Space Function Dining - family space Lights, !- Name
  {a22b6326-37e0-4996-8e8a-3c3af6b3801b}, !- Lights Definition Name
  {74d79ecf-87d4-4cbb-ba37-86cfde5c20bb}, !- Space or SpaceType Name
  ,                                       !- Schedule Name
  1,                                      !- Fraction Replaceable
  ,                                       !- Multiplier
  General;                                !- End-Use Subcategory

OS:ElectricEquipment:Definition,
  {285878e8-907a-4b05-aa06-33692b2c5c6c}, !- Handle
  Space Function Dining - family space Elec Equip Definition, !- Name
  Watts/Area,                             !- Design Level Calculation Method
  ,                                       !- Design Level {W}
  0.999991679497248,                      !- Watts per Space Floor Area {W/m2}
  ,                                       !- Watts per Person {W/person}
  ,                                       !- Fraction Latent
  0.5;                                    !- Fraction Radiant

OS:ElectricEquipment,
  {ea17c0a2-9346-49fc-a701-5893221294d9}, !- Handle
  Space Function Dining - family space Elec Equip, !- Name
  {285878e8-907a-4b05-aa06-33692b2c5c6c}, !- Electric Equipment Definition Name
  {74d79ecf-87d4-4cbb-ba37-86cfde5c20bb}, !- Space or SpaceType Name
  ,                                       !- Schedule Name
  ,                                       !- Multiplier
  General;                                !- End-Use Subcategory

OS:DesignSpecification:OutdoorAir,
  {96e5f06a-26bf-4979-a2f7-f7bdfe99782f}, !- Handle
  Space Function Dining - family space Ventilation, !- Name
  Sum,                                    !- Outdoor Air Method
  0.071122327285253,                      !- Outdoor Air Flow per Person {m3/s-person}
  ,                                       !- Outdoor Air Flow per Floor Area {m3/s-m2}
  ,                                       !- Outdoor Air Flow Rate {m3/s}
  ,                                       !- Outdoor Air Flow Air Changes per Hour {1/hr}
  ;                                       !- Outdoor Air Flow Rate Fraction Schedule Name

OS:DefaultScheduleSet,
  {858c1961-a043-4892-a640-429819defc3c}, !- Handle
  Space Function Dining - family space Schedule Set, !- Name
  ,                                       !- Hours of Operation Schedule Name
  {384921cd-62f4-4048-873b-903dff9975f3}, !- Number of People Schedule Name
  {7329f251-9860-4ed8-b903-f53e1e0e0bca}, !- People Activity Level Schedule Name
  {8e900e69-9d50-425e-b6d1-b11ceb6d9d8d}, !- Lighting Schedule Name
  {760742a4-475a-4528-9bbc-344fd0377a87}, !- Electric Equipment Schedule Name
  ,                                       !- Gas Equipment Schedule Name
  ,                                       !- Hot Water Equipment Schedule Name
  ,                                       !- Infiltration Schedule Name
  ,                                       !- Steam Equipment Schedule Name
  ;                                       !- Other Equipment Schedule Name

OS:Schedule:Ruleset,
  {384921cd-62f4-4048-873b-903dff9975f3}, !- Handle
  NECB-B-Occupancy,                       !- Name
  {5c74a3d1-850b-4f0d-8a91-2ae35d9ab2f9}, !- Schedule Type Limits Name
  {8b54cb10-8c4d-4bdd-ac98-ede5b897b91b}; !- Default Day Schedule Name

OS:Schedule:Day,
  {8b54cb10-8c4d-4bdd-ac98-ede5b897b91b}, !- Handle
  NECB-B-Occupancy Default,               !- Name
  {5c74a3d1-850b-4f0d-8a91-2ae35d9ab2f9}, !- Schedule Type Limits Name
  No,                                     !- Interpolate to Timestep
  1,                                      !- Hour 1
  0,                                      !- Minute 1
  0.3,                                    !- Value Until Time 1
  2,                                      !- Hour 2
  0,                                      !- Minute 2
  0.1,                                    !- Value Until Time 2
  9,                                      !- Hour 3
  0,                                      !- Minute 3
  0,                                      !- Value Until Time 3
  10,                                     !- Hour 4
  0,                                      !- Minute 4
  0.1,                                    !- Value Until Time 4
  11,                                     !- Hour 5
  0,                                      !- Minute 5
  0.2,                                    !- Value Until Time 5
  12,                                     !- Hour 6
  0,                                      !- Minute 6
  0.5,                                    !- Value Until Time 6
  13,                                     !- Hour 7
  0,                                      !- Minute 7
  0.9,                                    !- Value Until Time 7
  14,                                     !- Hour 8
  0,                                      !- Minute 8
  0.8,                                    !- Value Until Time 8
  15,                                     !- Hour 9
  0,                                      !- Minute 9
  0.5,                                    !- Value Until Time 9
  17,                                     !- Hour 10
  0,                                      !- Minute 10
  0.2,                                    !- Value Until Time 10
  18,                                     !- Hour 11
  0,                                      !- Minute 11
  0.3,                                    !- Value Until Time 11
  19,                                     !- Hour 12
  0,                                      !- Minute 12
  0.6,                                    !- Value Until Time 12
  22,                                     !- Hour 13
  0,                                      !- Minute 13
  0.9,                                    !- Value Until Time 13
  23,                                     !- Hour 14
  0,                                      !- Minute 14
  0.6,                                    !- Value Until Time 14
  24,                                     !- Hour 15
  0,                                      !- Minute 15
  0.4;                                    !- Value Until Time 15

OS:Schedule:Rule,
  {60774736-298c-4aab-a8c7-3dc9135b26b6}, !- Handle
  Schedule Rule 2,                        !- Name
  {384921cd-62f4-4048-873b-903dff9975f3}, !- Schedule Ruleset Name
  2,                                      !- Rule Order
  {9999882f-0e4c-4684-902e-1b1fa7116703}, !- Day Schedule Name
  ,                                       !- Apply Sunday
  Yes,                                    !- Apply Monday
  Yes,                                    !- Apply Tuesday
  Yes,                                    !- Apply Wednesday
  Yes,                                    !- Apply Thursday
  Yes,                                    !- Apply Friday
  ,                                       !- Apply Saturday
  DateRange,                              !- Date Specification Type
  1,                                      !- Start Month
  1,                                      !- Start Day
  12,                                     !- End Month
  31;                                     !- End Day

OS:Schedule:Day,
  {9999882f-0e4c-4684-902e-1b1fa7116703}, !- Handle
  NECB-B-Occupancy Default|Wkdy Day,      !- Name
  {5c74a3d1-850b-4f0d-8a91-2ae35d9ab2f9}, !- Schedule Type Limits Name
  No,                                     !- Interpolate to Timestep
  1,                                      !- Hour 1
  0,                                      !- Minute 1
  0.3,                                    !- Value Until Time 1
  2,                                      !- Hour 2
  0,                                      !- Minute 2
  0.1,                                    !- Value Until Time 2
  9,                                      !- Hour 3
  0,                                      !- Minute 3
  0,                                      !- Value Until Time 3
  10,                                     !- Hour 4
  0,                                      !- Minute 4
  0.1,                                    !- Value Until Time 4
  11,                                     !- Hour 5
  0,                                      !- Minute 5
  0.2,                                    !- Value Until Time 5
  12,                                     !- Hour 6
  0,                                      !- Minute 6
  0.5,                                    !- Value Until Time 6
  13,                                     !- Hour 7
  0,                                      !- Minute 7
  0.9,                                    !- Value Until Time 7
  14,                                     !- Hour 8
  0,                                      !- Minute 8
  0.8,                                    !- Value Until Time 8
  15,                                     !- Hour 9
  0,                                      !- Minute 9
  0.5,                                    !- Value Until Time 9
  17,                                     !- Hour 10
  0,                                      !- Minute 10
  0.2,                                    !- Value Until Time 10
  18,                                     !- Hour 11
  0,                                      !- Minute 11
  0.3,                                    !- Value Until Time 11
  19,                                     !- Hour 12
  0,                                      !- Minute 12
  0.6,                                    !- Value Until Time 12
  22,                                     !- Hour 13
  0,                                      !- Minute 13
  0.9,                                    !- Value Until Time 13
  23,                                     !- Hour 14
  0,                                      !- Minute 14
  0.6,                                    !- Value Until Time 14
  24,                                     !- Hour 15
  0,                                      !- Minute 15
  0.4;                                    !- Value Until Time 15

OS:Schedule:Rule,
  {bd4d7f3b-38df-4636-9e7b-482e282b4937}, !- Handle
  Schedule Rule 3,                        !- Name
  {384921cd-62f4-4048-873b-903dff9975f3}, !- Schedule Ruleset Name
  1,                                      !- Rule Order
  {7afb5023-4f5a-40db-bdad-c43e1dc1a98a}, !- Day Schedule Name
  ,                                       !- Apply Sunday
  ,                                       !- Apply Monday
  ,                                       !- Apply Tuesday
  ,                                       !- Apply Wednesday
  ,                                       !- Apply Thursday
  ,                                       !- Apply Friday
  Yes,                                    !- Apply Saturday
  DateRange,                              !- Date Specification Type
  1,                                      !- Start Month
  1,                                      !- Start Day
  12,                                     !- End Month
  31;                                     !- End Day

OS:Schedule:Day,
  {7afb5023-4f5a-40db-bdad-c43e1dc1a98a}, !- Handle
  NECB-B-Occupancy Sat Day,               !- Name
  {5c74a3d1-850b-4f0d-8a91-2ae35d9ab2f9}, !- Schedule Type Limits Name
  No,                                     !- Interpolate to Timestep
  1,                                      !- Hour 1
  0,                                      !- Minute 1
  0.5,                                    !- Value Until Time 1
  2,                                      !- Hour 2
  0,                                      !- Minute 2
  0.3,                                    !- Value Until Time 2
  9,                                      !- Hour 3
  0,                                      !- Minute 3
  0,                                      !- Value Until Time 3
  10,                                     !- Hour 4
  0,                                      !- Minute 4
  0.1,                                    !- Value Until Time 4
  11,                                     !- Hour 5
  0,                                      !- Minute 5
  0.2,                                    !- Value Until Time 5
  12,                                     !- Hour 6
  0,                                      !- Minute 6
  0.5,                                    !- Value Until Time 6
  13,                                     !- Hour 7
  0,                                      !- Minute 7
  0.9,                                    !- Value Until Time 7
  14,                                     !- Hour 8
  0,                                      !- Minute 8
  0.8,                                    !- Value Until Time 8
  15,                                     !- Hour 9
  0,                                      !- Minute 9
  0.5,                                    !- Value Until Time 9
  17,                                     !- Hour 10
  0,                                      !- Minute 10
  0.2,                                    !- Value Until Time 10
  18,                                     !- Hour 11
  0,                                      !- Minute 11
  0.3,                                    !- Value Until Time 11
  19,                                     !- Hour 12
  0,                                      !- Minute 12
  0.6,                                    !- Value Until Time 12
  22,                                     !- Hour 13
  0,                                      !- Minute 13
  0.9,                                    !- Value Until Time 13
  24,                                     !- Hour 14
  0,                                      !- Minute 14
  0.6;                                    !- Value Until Time 14

OS:Schedule:Rule,
  {9727c554-efd8-4b60-9903-6e7272043c99}, !- Handle
  Schedule Rule 4,                        !- Name
  {384921cd-62f4-4048-873b-903dff9975f3}, !- Schedule Ruleset Name
  0,                                      !- Rule Order
  {bc3edcb8-307d-42a2-b7ff-e495c7abfc00}, !- Day Schedule Name
  Yes,                                    !- Apply Sunday
  ,                                       !- Apply Monday
  ,                                       !- Apply Tuesday
  ,                                       !- Apply Wednesday
  ,                                       !- Apply Thursday
  ,                                       !- Apply Friday
  ,                                       !- Apply Saturday
  DateRange,                              !- Date Specification Type
  1,                                      !- Start Month
  1,                                      !- Start Day
  12,                                     !- End Month
  31;                                     !- End Day

OS:Schedule:Day,
  {bc3edcb8-307d-42a2-b7ff-e495c7abfc00}, !- Handle
  NECB-B-Occupancy Sun|Hol Day,           !- Name
  {5c74a3d1-850b-4f0d-8a91-2ae35d9ab2f9}, !- Schedule Type Limits Name
  No,                                     !- Interpolate to Timestep
  1,                                      !- Hour 1
  0,                                      !- Minute 1
  0.1,                                    !- Value Until Time 1
  2,                                      !- Hour 2
  0,                                      !- Minute 2
  0.3,                                    !- Value Until Time 2
  10,                                     !- Hour 3
  0,                                      !- Minute 3
  0,                                      !- Value Until Time 3
  11,                                     !- Hour 4
  0,                                      !- Minute 4
  0.1,                                    !- Value Until Time 4
  12,                                     !- Hour 5
  0,                                      !- Minute 5
  0.4,                                    !- Value Until Time 5
  14,                                     !- Hour 6
  0,                                      !- Minute 6
  0.5,                                    !- Value Until Time 6
  15,                                     !- Hour 7
  0,                                      !- Minute 7
  0.4,                                    !- Value Until Time 7
  18,                                     !- Hour 8
  0,                                      !- Minute 8
  0.2,                                    !- Value Until Time 8
  19,                                     !- Hour 9
  0,                                      !- Minute 9
  0.5,                                    !- Value Until Time 9
  21,                                     !- Hour 10
  0,                                      !- Minute 10
  0.7,                                    !- Value Until Time 10
  22,                                     !- Hour 11
  0,                                      !- Minute 11
  0.5,                                    !- Value Until Time 11
  23,                                     !- Hour 12
  0,                                      !- Minute 12
  0.3,                                    !- Value Until Time 12
  24,                                     !- Hour 13
  0,                                      !- Minute 13
  0.1;                                    !- Value Until Time 13

OS:Schedule:Ruleset,
  {7329f251-9860-4ed8-b903-f53e1e0e0bca}, !- Handle
  NECB-Activity,                          !- Name
  {3d24b65f-9497-4553-babd-6feae2bc80ab}, !- Schedule Type Limits Name
  {d3b41397-0227-49bf-b299-150dc7a5da79}, !- Default Day Schedule Name
  {30840a06-7032-456b-9311-022cdd584977}, !- Summer Design Day Schedule Name
  {f61769b3-94d3-4778-8a65-26c04d0b9cd2}; !- Winter Design Day Schedule Name

OS:Schedule:Day,
  {d3b41397-0227-49bf-b299-150dc7a5da79}, !- Handle
  NECB-Activity Default,                  !- Name
  {3d24b65f-9497-4553-babd-6feae2bc80ab}, !- Schedule Type Limits Name
  No,                                     !- Interpolate to Timestep
  24,                                     !- Hour 1
  0,                                      !- Minute 1
  130;                                    !- Value Until Time 1

OS:Schedule:Day,
  {f6b25eea-f4cd-4606-91bb-c6611b1fa501}, !- Handle
  Schedule Day 1,                         !- Name
  ,                                       !- Schedule Type Limits Name
  ,                                       !- Interpolate to Timestep
  24,                                     !- Hour 1
  0,                                      !- Minute 1
  0;                                      !- Value Until Time 1

OS:Schedule:Day,
  {f61769b3-94d3-4778-8a65-26c04d0b9cd2}, !- Handle
  NECB-Activity Winter Design Day,        !- Name
  {3d24b65f-9497-4553-babd-6feae2bc80ab}, !- Schedule Type Limits Name
  No,                                     !- Interpolate to Timestep
  24,                                     !- Hour 1
  0,                                      !- Minute 1
  130;                                    !- Value Until Time 1

OS:Schedule:Day,
  {9cdea054-f5e9-42ec-a9d7-86c8dd44ccc8}, !- Handle
  Schedule Day 2,                         !- Name
  ,                                       !- Schedule Type Limits Name
  ,                                       !- Interpolate to Timestep
  24,                                     !- Hour 1
  0,                                      !- Minute 1
  0;                                      !- Value Until Time 1

OS:Schedule:Day,
  {30840a06-7032-456b-9311-022cdd584977}, !- Handle
  NECB-Activity Summer Design Day,        !- Name
  {3d24b65f-9497-4553-babd-6feae2bc80ab}, !- Schedule Type Limits Name
  No,                                     !- Interpolate to Timestep
  24,                                     !- Hour 1
  0,                                      !- Minute 1
  130;                                    !- Value Until Time 1

OS:ScheduleTypeLimits,
  {3d24b65f-9497-4553-babd-6feae2bc80ab}, !- Handle
  ActivityLevel,                          !- Name
  0,                                      !- Lower Limit Value
  ,                                       !- Upper Limit Value
  Continuous,                             !- Numeric Type
  ActivityLevel;                          !- Unit Type

OS:Schedule:Ruleset,
  {8e900e69-9d50-425e-b6d1-b11ceb6d9d8d}, !- Handle
  NECB-B-Lighting,                        !- Name
  {5c74a3d1-850b-4f0d-8a91-2ae35d9ab2f9}, !- Schedule Type Limits Name
  {7f31fb81-f641-4c79-afa3-d6885348bfaf}; !- Default Day Schedule Name

OS:Schedule:Day,
  {7f31fb81-f641-4c79-afa3-d6885348bfaf}, !- Handle
  NECB-B-Lighting Default,                !- Name
  {5c74a3d1-850b-4f0d-8a91-2ae35d9ab2f9}, !- Schedule Type Limits Name
  No,                                     !- Interpolate to Timestep
  1,                                      !- Hour 1
  0,                                      !- Minute 1
  0.9,                                    !- Value Until Time 1
  2,                                      !- Hour 2
  0,                                      !- Minute 2
  0.5,                                    !- Value Until Time 2
  9,                                      !- Hour 3
  0,                                      !- Minute 3
  0.1,                                    !- Value Until Time 3
  10,                                     !- Hour 4
  0,                                      !- Minute 4
  0.5,                                    !- Value Until Time 4
  11,                                     !- Hour 5
  0,                                      !- Minute 5
  0.7,                                    !- Value Until Time 5
  24,                                     !- Hour 6
  0,                                      !- Minute 6
  0.9;                                    !- Value Until Time 6

OS:Schedule:Rule,
  {3d9a6bba-3c81-4ac8-9116-74fc568559d9}, !- Handle
  Schedule Rule 5,                        !- Name
  {8e900e69-9d50-425e-b6d1-b11ceb6d9d8d}, !- Schedule Ruleset Name
  2,                                      !- Rule Order
  {40ca0cb9-63e3-4d78-89fa-62a9227a053c}, !- Day Schedule Name
  ,                                       !- Apply Sunday
  Yes,                                    !- Apply Monday
  Yes,                                    !- Apply Tuesday
  Yes,                                    !- Apply Wednesday
  Yes,                                    !- Apply Thursday
  Yes,                                    !- Apply Friday
  ,                                       !- Apply Saturday
  DateRange,                              !- Date Specification Type
  1,                                      !- Start Month
  1,                                      !- Start Day
  12,                                     !- End Month
  31;                                     !- End Day

OS:Schedule:Day,
  {40ca0cb9-63e3-4d78-89fa-62a9227a053c}, !- Handle
  NECB-B-Lighting Default|Wkdy Day,       !- Name
  {5c74a3d1-850b-4f0d-8a91-2ae35d9ab2f9}, !- Schedule Type Limits Name
  No,                                     !- Interpolate to Timestep
  1,                                      !- Hour 1
  0,                                      !- Minute 1
  0.9,                                    !- Value Until Time 1
  2,                                      !- Hour 2
  0,                                      !- Minute 2
  0.5,                                    !- Value Until Time 2
  9,                                      !- Hour 3
  0,                                      !- Minute 3
  0.1,                                    !- Value Until Time 3
  10,                                     !- Hour 4
  0,                                      !- Minute 4
  0.5,                                    !- Value Until Time 4
  11,                                     !- Hour 5
  0,                                      !- Minute 5
  0.7,                                    !- Value Until Time 5
  24,                                     !- Hour 6
  0,                                      !- Minute 6
  0.9;                                    !- Value Until Time 6

OS:Schedule:Rule,
  {658a169c-2807-49ed-85fe-3a09792fa327}, !- Handle
  Schedule Rule 6,                        !- Name
  {8e900e69-9d50-425e-b6d1-b11ceb6d9d8d}, !- Schedule Ruleset Name
  1,                                      !- Rule Order
  {2a06b0e5-7220-4685-82e6-d8518f80ac20}, !- Day Schedule Name
  ,                                       !- Apply Sunday
  ,                                       !- Apply Monday
  ,                                       !- Apply Tuesday
  ,                                       !- Apply Wednesday
  ,                                       !- Apply Thursday
  ,                                       !- Apply Friday
  Yes,                                    !- Apply Saturday
  DateRange,                              !- Date Specification Type
  1,                                      !- Start Month
  1,                                      !- Start Day
  12,                                     !- End Month
  31;                                     !- End Day

OS:Schedule:Day,
  {2a06b0e5-7220-4685-82e6-d8518f80ac20}, !- Handle
  NECB-B-Lighting Sat Day,                !- Name
  {5c74a3d1-850b-4f0d-8a91-2ae35d9ab2f9}, !- Schedule Type Limits Name
  No,                                     !- Interpolate to Timestep
  1,                                      !- Hour 1
  0,                                      !- Minute 1
  0.9,                                    !- Value Until Time 1
  2,                                      !- Hour 2
  0,                                      !- Minute 2
  0.5,                                    !- Value Until Time 2
  9,                                      !- Hour 3
  0,                                      !- Minute 3
  0.1,                                    !- Value Until Time 3
  10,                                     !- Hour 4
  0,                                      !- Minute 4
  0.5,                                    !- Value Until Time 4
  11,                                     !- Hour 5
  0,                                      !- Minute 5
  0.7,                                    !- Value Until Time 5
  24,                                     !- Hour 6
  0,                                      !- Minute 6
  0.9;                                    !- Value Until Time 6

OS:Schedule:Rule,
  {8880fcd4-f466-4472-86a5-55d048b2b29f}, !- Handle
  Schedule Rule 7,                        !- Name
  {8e900e69-9d50-425e-b6d1-b11ceb6d9d8d}, !- Schedule Ruleset Name
  0,                                      !- Rule Order
  {d085dca2-f64b-41a8-b6e4-8638b39df4bb}, !- Day Schedule Name
  Yes,                                    !- Apply Sunday
  ,                                       !- Apply Monday
  ,                                       !- Apply Tuesday
  ,                                       !- Apply Wednesday
  ,                                       !- Apply Thursday
  ,                                       !- Apply Friday
  ,                                       !- Apply Saturday
  DateRange,                              !- Date Specification Type
  1,                                      !- Start Month
  1,                                      !- Start Day
  12,                                     !- End Month
  31;                                     !- End Day

OS:Schedule:Day,
  {d085dca2-f64b-41a8-b6e4-8638b39df4bb}, !- Handle
  NECB-B-Lighting Sun|Hol Day,            !- Name
  {5c74a3d1-850b-4f0d-8a91-2ae35d9ab2f9}, !- Schedule Type Limits Name
  No,                                     !- Interpolate to Timestep
  2,                                      !- Hour 1
  0,                                      !- Minute 1
  0.5,                                    !- Value Until Time 1
  10,                                     !- Hour 2
  0,                                      !- Minute 2
  0.1,                                    !- Value Until Time 2
  11,                                     !- Hour 3
  0,                                      !- Minute 3
  0.5,                                    !- Value Until Time 3
  23,                                     !- Hour 4
  0,                                      !- Minute 4
  0.9,                                    !- Value Until Time 4
  24,                                     !- Hour 5
  0,                                      !- Minute 5
  0.5;                                    !- Value Until Time 5

OS:Schedule:Ruleset,
  {760742a4-475a-4528-9bbc-344fd0377a87}, !- Handle
  NECB-B-Electric-Equipment,              !- Name
  {5c74a3d1-850b-4f0d-8a91-2ae35d9ab2f9}, !- Schedule Type Limits Name
  {8f078e35-f327-42aa-bdc4-c3b49d85c0c6}; !- Default Day Schedule Name

OS:Schedule:Day,
  {8f078e35-f327-42aa-bdc4-c3b49d85c0c6}, !- Handle
  NECB-B-Electric-Equipment Default,      !- Name
  {5c74a3d1-850b-4f0d-8a91-2ae35d9ab2f9}, !- Schedule Type Limits Name
  No,                                     !- Interpolate to Timestep
[...]
  3,                                      !- Outlet Port
  {87997ccc-eca4-4a8a-a8da-20b6f7d5d07e}, !- Target Object
  2;                                      !- Inlet Port

OS:Connection,
  {25fa4105-e160-4363-9ba0-b0276c53139e}, !- Handle
  {7092bc9d-5f05-4d3c-956c-3c583fad28d7}, !- Source Object
  2,                                      !- Outlet Port
  {c49da764-22cd-41b2-8fb4-d4dac9ef94e8}, !- Target Object
  2;                                      !- Inlet Port

OS:Connection,
  {67811832-ad41-411a-9597-f0da53af5bd3}, !- Handle
  {c49da764-22cd-41b2-8fb4-d4dac9ef94e8}, !- Source Object
  3,                                      !- Outlet Port
  {fc2b057d-c109-4c1a-8aa2-e73829e3cfe4}, !- Target Object
  3;                                      !- Inlet Port

OS:Node,
  {039e8893-6489-4a3a-9a06-90688aaeb5b3}, !- Handle
  Air Terminal Single Duct Constant Volume No Reheat 2 Inlet Air Node, !- Name
  {a9a4c1e4-241d-454e-a74d-9d0398db98f8}, !- Inlet Port
  {c51b7d7e-bedb-4eef-af05-e7e73b229419}; !- Outlet Port

OS:Connection,
  {a9a4c1e4-241d-454e-a74d-9d0398db98f8}, !- Handle
  {bb112281-9f84-497b-aa24-8b83d7c88f36}, !- Source Object
  3,                                      !- Outlet Port
  {039e8893-6489-4a3a-9a06-90688aaeb5b3}, !- Target Object
  2;                                      !- Inlet Port

OS:Connection,
  {c51b7d7e-bedb-4eef-af05-e7e73b229419}, !- Handle
  {039e8893-6489-4a3a-9a06-90688aaeb5b3}, !- Source Object
  3,                                      !- Outlet Port
  {d69f2fc6-1f5d-4d8b-955f-7749a66a66d6}, !- Target Object
  3;                                      !- Inlet Port

OS:Connection,
  {fdca86c6-341a-4e1f-9f5f-5d7d7fea529c}, !- Handle
  {d69f2fc6-1f5d-4d8b-955f-7749a66a66d6}, !- Source Object
  4,                                      !- Outlet Port
  {6ac1e512-bc4a-4259-b71c-2a2f25bcc76c}, !- Target Object
  2;                                      !- Inlet Port

OS:ZoneHVAC:Baseboard:Convective:Electric,
  {28684b1b-b0ff-4e58-bbf4-c6d3def35659}, !- Handle
  ZoneHVACBaseboardConvectiveElectric 1,  !- Name
  {866d2715-5aa1-49ec-a84d-1f6aadc9f6f3}, !- Availability Schedule
  autosize,                               !- Nominal Capacity {W}
  1;                                      !- Efficiency

OS:Schedule:Ruleset,
  {23d83650-987f-40cd-ac51-0e8618c00c57}, !- Handle
  Economizer Max OA Fraction 100 pct,     !- Name
  ,                                       !- Schedule Type Limits Name
  {b6e18a89-005a-467c-88e6-a6fcd614d93b}; !- Default Day Schedule Name

OS:Schedule:Day,
  {b6e18a89-005a-467c-88e6-a6fcd614d93b}, !- Handle
  Economizer Max OA Fraction 100 pct Default, !- Name
  ,                                       !- Schedule Type Limits Name
  ,                                       !- Interpolate to Timestep
  24,                                     !- Hour 1
  0,                                      !- Minute 1
  1;                                      !- Value Until Time 1

OS:AvailabilityManager:NightCycle,
  {386d25ac-df74-4c57-9fe3-caa657e71e6b}, !- Handle
  Availability Manager Night Cycle 1,     !- Name
  {866d2715-5aa1-49ec-a84d-1f6aadc9f6f3}, !- Applicability Schedule
  ,                                       !- Fan Schedule
  CycleOnAny,                             !- Control Type
  1,                                      !- Thermostat Tolerance {deltaC}
  ,                                       !- Cycling Run Time Control Type
  3600,                                   !- Cycling Run Time {s}
  {d6f50bf4-52fd-43e9-bef6-5a6d99cdb145}, !- Control Zone or Zone List Name
  {bc5af7ba-93c0-42b3-bd19-3532ae78614c}, !- Cooling Control Zone or Zone List Name
  {3badadeb-f862-43bd-97eb-6be3b582919b}, !- Heating Control Zone or Zone List Name
  {dcb1df69-945e-4561-b3e9-05e0d489c71f}; !- Heating Zone Fans Only Zone or Zone List Name

OS:ModelObjectList,
  {d6f50bf4-52fd-43e9-bef6-5a6d99cdb145}, !- Handle
  Availability Manager Night Cycle 1 Control Zone List; !- Name

OS:ModelObjectList,
  {bc5af7ba-93c0-42b3-bd19-3532ae78614c}, !- Handle
  Availability Manager Night Cycle 1 Cooling Control Zone List; !- Name

OS:ModelObjectList,
  {3badadeb-f862-43bd-97eb-6be3b582919b}, !- Handle
  Availability Manager Night Cycle 1 Heating Control Zone List; !- Name

OS:ModelObjectList,
  {dcb1df69-945e-4561-b3e9-05e0d489c71f}, !- Handle
  Availability Manager Night Cycle 1 Heating Zone Fans Only Zone List; !- Name

OS:Schedule:Ruleset,
  {358b2d77-7b30-4087-adf0-fbd572800118}, !- Handle
  sys_3|mixed|shr>none|sc>ccashp|sh>ccashp|ssf>cv|zh>b-e|zc>none|srf>none| Occ Sch, !- Name
  {5c74a3d1-850b-4f0d-8a91-2ae35d9ab2f9}, !- Schedule Type Limits Name
  {bb605208-0ac9-4d1f-a513-c2627ac20df9}, !- Default Day Schedule Name
  {cd4ca89a-c848-4179-8765-94d0cf1dc9a8}, !- Summer Design Day Schedule Name
  {89f672cc-353a-4997-b371-822514efca97}; !- Winter Design Day Schedule Name

OS:Schedule:Day,
  {bb605208-0ac9-4d1f-a513-c2627ac20df9}, !- Handle
  sys_3|mixed|shr>none|sc>ccashp|sh>ccashp|ssf>cv|zh>b-e|zc>none|srf>none| Occ Sch Default, !- Name
  {5c74a3d1-850b-4f0d-8a91-2ae35d9ab2f9}, !- Schedule Type Limits Name
  ,                                       !- Interpolate to Timestep
  1,                                      !- Hour 1
  0,                                      !- Minute 1
  1,                                      !- Value Until Time 1
  10,                                     !- Hour 2
  0,                                      !- Minute 2
  0,                                      !- Value Until Time 2
  24,                                     !- Hour 3
  0,                                      !- Minute 3
  1;                                      !- Value Until Time 3

OS:AdditionalProperties,
  {0187d6f4-b5be-4d07-a445-2340871c1a11}, !- Handle
  {358b2d77-7b30-4087-adf0-fbd572800118}, !- Object Name
  max_occ_in_spaces,                      !- Feature Name 1
  Double,                                 !- Feature Data Type 1
  37.173590704266502,                     !- Feature Value 1
  number_of_spaces_included,              !- Feature Name 2
  Integer,                                !- Feature Data Type 2
  1,                                      !- Feature Value 2
  date_parent_object_last_edited,         !- Feature Name 3
  String,                                 !- Feature Data Type 3
  2025-10-15 16:33:42 UTC,                !- Feature Value 3
  date_parent_object_created,             !- Feature Name 4
  String,                                 !- Feature Data Type 4
  2025-10-15 16:33:42 UTC;                !- Feature Value 4

OS:Schedule:Day,
  {89f672cc-353a-4997-b371-822514efca97}, !- Handle
  sys_3|mixed|shr>none|sc>ccashp|sh>ccashp|ssf>cv|zh>b-e|zc>none|srf>none| Occ Sch Winter Design Day, !- Name
  {5c74a3d1-850b-4f0d-8a91-2ae35d9ab2f9}, !- Schedule Type Limits Name
  ,                                       !- Interpolate to Timestep
  24,                                     !- Hour 1
  0,                                      !- Minute 1
  1;                                      !- Value Until Time 1

OS:Schedule:Day,
  {cd4ca89a-c848-4179-8765-94d0cf1dc9a8}, !- Handle
  sys_3|mixed|shr>none|sc>ccashp|sh>ccashp|ssf>cv|zh>b-e|zc>none|srf>none| Occ Sch Summer Design Day, !- Name
  {5c74a3d1-850b-4f0d-8a91-2ae35d9ab2f9}, !- Schedule Type Limits Name
  ,                                       !- Interpolate to Timestep
  24,                                     !- Hour 1
  0,                                      !- Minute 1
  1;                                      !- Value Until Time 1

OS:Schedule:Rule,
  {2c5e4bac-c609-4caf-b1f0-3c3cb38881a7}, !- Handle
  Schedule Rule 20,                       !- Name
  {358b2d77-7b30-4087-adf0-fbd572800118}, !- Schedule Ruleset Name
  1,                                      !- Rule Order
  {fb67c8bb-1f74-4322-95dd-d1ab25685a0e}, !- Day Schedule Name
  ,                                       !- Apply Sunday
  ,                                       !- Apply Monday
  ,                                       !- Apply Tuesday
  ,                                       !- Apply Wednesday
  ,                                       !- Apply Thursday
  ,                                       !- Apply Friday
  Yes,                                    !- Apply Saturday
  DateRange,                              !- Date Specification Type
  1,                                      !- Start Month
  7,                                      !- Start Day
  12,                                     !- End Month
  30;                                     !- End Day

OS:Schedule:Day,
  {fb67c8bb-1f74-4322-95dd-d1ab25685a0e}, !- Handle
  Schedule Day 5,                         !- Name
  {5c74a3d1-850b-4f0d-8a91-2ae35d9ab2f9}, !- Schedule Type Limits Name
  ,                                       !- Interpolate to Timestep
  2,                                      !- Hour 1
  0,                                      !- Minute 1
  1,                                      !- Value Until Time 1
  10,                                     !- Hour 2
  0,                                      !- Minute 2
  0,                                      !- Value Until Time 2
  24,                                     !- Hour 3
  0,                                      !- Minute 3
  1;                                      !- Value Until Time 3

OS:Schedule:Rule,
  {bb18d777-0961-410c-9b18-b19437e4e761}, !- Handle
  Schedule Rule 21,                       !- Name
  {358b2d77-7b30-4087-adf0-fbd572800118}, !- Schedule Ruleset Name
  0,                                      !- Rule Order
  {0f9b4daa-8646-4cc1-8ac7-b0ee6035e3a0}, !- Day Schedule Name
  Yes,                                    !- Apply Sunday
  ,                                       !- Apply Monday
  ,                                       !- Apply Tuesday
  ,                                       !- Apply Wednesday
  ,                                       !- Apply Thursday
  ,                                       !- Apply Friday
  ,                                       !- Apply Saturday
  DateRange,                              !- Date Specification Type
  1,                                      !- Start Month
  1,                                      !- Start Day
  12,                                     !- End Month
  31;                                     !- End Day

OS:Schedule:Day,
  {0f9b4daa-8646-4cc1-8ac7-b0ee6035e3a0}, !- Handle
  Schedule Day 6,                         !- Name
  {5c74a3d1-850b-4f0d-8a91-2ae35d9ab2f9}, !- Schedule Type Limits Name
  ,                                       !- Interpolate to Timestep
  1,                                      !- Hour 1
  0,                                      !- Minute 1
  0,                                      !- Value Until Time 1
  2,                                      !- Hour 2
  0,                                      !- Minute 2
  1,                                      !- Value Until Time 2
  11,                                     !- Hour 3
  0,                                      !- Minute 3
  0,                                      !- Value Until Time 3
  23,                                     !- Hour 4
  0,                                      !- Minute 4
  1,                                      !- Value Until Time 4
  24,                                     !- Hour 5
  0,                                      !- Minute 5
  0;                                      !- Value Until Time 5

OS:AvailabilityManager:NightCycle,
  {47542a2b-c800-4288-90c6-9395aa488940}, !- Handle
  Availability Manager Night Cycle 2,     !- Name
  {866d2715-5aa1-49ec-a84d-1f6aadc9f6f3}, !- Applicability Schedule
  ,                                       !- Fan Schedule
  CycleOnAny,                             !- Control Type
  1,                                      !- Thermostat Tolerance {deltaC}
  ,                                       !- Cycling Run Time Control Type
  3600,                                   !- Cycling Run Time {s}
  {20daee4a-0eb5-4eb3-84f1-d6c46cbab81f}, !- Control Zone or Zone List Name
  {37f59bdf-7bb0-4c6f-bf75-405617e96170}, !- Cooling Control Zone or Zone List Name
  {26b0c428-a53c-4844-8e88-29a899a21c32}, !- Heating Control Zone or Zone List Name
  {c35a7226-b2c3-46b1-99a1-184b4f76e21b}; !- Heating Zone Fans Only Zone or Zone List Name

OS:ModelObjectList,
  {20daee4a-0eb5-4eb3-84f1-d6c46cbab81f}, !- Handle
  Availability Manager Night Cycle 2 Control Zone List; !- Name

OS:ModelObjectList,
  {37f59bdf-7bb0-4c6f-bf75-405617e96170}, !- Handle
  Availability Manager Night Cycle 2 Cooling Control Zone List; !- Name

OS:ModelObjectList,
  {26b0c428-a53c-4844-8e88-29a899a21c32}, !- Handle
  Availability Manager Night Cycle 2 Heating Control Zone List; !- Name

OS:ModelObjectList,
  {c35a7226-b2c3-46b1-99a1-184b4f76e21b}, !- Handle
  Availability Manager Night Cycle 2 Heating Zone Fans Only Zone List; !- Name

OS:Schedule:Ruleset,
  {f3a2f10b-2690-42f4-aec2-144187c63e52}, !- Handle
  sys_3|mixed|shr>none|sc>ccashp|sh>ccashp|ssf>cv|zh>b-e|zc>none|srf>none| 1 Occ Sch, !- Name
  {5c74a3d1-850b-4f0d-8a91-2ae35d9ab2f9}, !- Schedule Type Limits Name
  {0f88c586-6622-4d1a-a450-289afb5ec433}, !- Default Day Schedule Name
  {44fcb1e1-5647-4fa3-80df-48d6bae183e4}, !- Summer Design Day Schedule Name
  {6659f2cd-a190-4096-9818-3b1f7683e1d6}; !- Winter Design Day Schedule Name

OS:Schedule:Day,
  {0f88c586-6622-4d1a-a450-289afb5ec433}, !- Handle
  sys_3|mixed|shr>none|sc>ccashp|sh>ccashp|ssf>cv|zh>b-e|zc>none|srf>none| 1 Occ Sch Default, !- Name
  {5c74a3d1-850b-4f0d-8a91-2ae35d9ab2f9}, !- Schedule Type Limits Name
  ,                                       !- Interpolate to Timestep
  1,                                      !- Hour 1
  0,                                      !- Minute 1
  1,                                      !- Value Until Time 1
  10,                                     !- Hour 2
  0,                                      !- Minute 2
  0,                                      !- Value Until Time 2
  24,                                     !- Hour 3
  0,                                      !- Minute 3
  1;                                      !- Value Until Time 3

OS:AdditionalProperties,
  {de81bf0c-7537-4158-ab7e-ef2c77500567}, !- Handle
  {f3a2f10b-2690-42f4-aec2-144187c63e52}, !- Object Name
  max_occ_in_spaces,                      !- Feature Name 1
  Double,                                 !- Feature Data Type 1
  6.9775368548757921,                     !- Feature Value 1
  number_of_spaces_included,              !- Feature Name 2
  Integer,                                !- Feature Data Type 2
  1,                                      !- Feature Value 2
  date_parent_object_last_edited,         !- Feature Name 3
  String,                                 !- Feature Data Type 3
  2025-10-15 16:33:43 UTC,                !- Feature Value 3
  date_parent_object_created,             !- Feature Name 4
  String,                                 !- Feature Data Type 4
  2025-10-15 16:33:43 UTC;                !- Feature Value 4

OS:Schedule:Day,
  {6659f2cd-a190-4096-9818-3b1f7683e1d6}, !- Handle
  sys_3|mixed|shr>none|sc>ccashp|sh>ccashp|ssf>cv|zh>b-e|zc>none|srf>none| 1 Occ Sch Winter Design Day, !- Name
  {5c74a3d1-850b-4f0d-8a91-2ae35d9ab2f9}, !- Schedule Type Limits Name
  ,                                       !- Interpolate to Timestep
  24,                                     !- Hour 1
  0,                                      !- Minute 1
  1;                                      !- Value Until Time 1

OS:Schedule:Day,
  {44fcb1e1-5647-4fa3-80df-48d6bae183e4}, !- Handle
  sys_3|mixed|shr>none|sc>ccashp|sh>ccashp|ssf>cv|zh>b-e|zc>none|srf>none| 1 Occ Sch Summer Design Day, !- Name
  {5c74a3d1-850b-4f0d-8a91-2ae35d9ab2f9}, !- Schedule Type Limits Name
  ,                                       !- Interpolate to Timestep
  24,                                     !- Hour 1
  0,                                      !- Minute 1
  1;                                      !- Value Until Time 1

OS:Schedule:Rule,
  {cb57d603-359a-40a9-9f8d-8bf768229787}, !- Handle
  Schedule Rule 22,                       !- Name
  {f3a2f10b-2690-42f4-aec2-144187c63e52}, !- Schedule Ruleset Name
  1,                                      !- Rule Order
  {4ec53cc4-3331-4cbd-b5a6-75b44fc1e2c4}, !- Day Schedule Name
  ,                                       !- Apply Sunday
  ,                                       !- Apply Monday
  ,                                       !- Apply Tuesday
  ,                                       !- Apply Wednesday
  ,                                       !- Apply Thursday
  ,                                       !- Apply Friday
  Yes,                                    !- Apply Saturday
  DateRange,                              !- Date Specification Type
  1,                                      !- Start Month
  7,                                      !- Start Day
  12,                                     !- End Month
  30;                                     !- End Day

OS:Schedule:Day,
  {4ec53cc4-3331-4cbd-b5a6-75b44fc1e2c4}, !- Handle
  Schedule Day 7,                         !- Name
  {5c74a3d1-850b-4f0d-8a91-2ae35d9ab2f9}, !- Schedule Type Limits Name
  ,                                       !- Interpolate to Timestep
  2,                                      !- Hour 1
  0,                                      !- Minute 1
  1,                                      !- Value Until Time 1
  10,                                     !- Hour 2
  0,                                      !- Minute 2
  0,                                      !- Value Until Time 2
  24,                                     !- Hour 3
  0,                                      !- Minute 3
  1;                                      !- Value Until Time 3

OS:Schedule:Rule,
  {0647f426-c5c4-4b24-b74d-3e058dd0bcfa}, !- Handle
  Schedule Rule 23,                       !- Name
  {f3a2f10b-2690-42f4-aec2-144187c63e52}, !- Schedule Ruleset Name
  0,                                      !- Rule Order
  {d0eacd22-d1c4-4f73-8a56-ebaaf6fd86c0}, !- Day Schedule Name
  Yes,                                    !- Apply Sunday
  ,                                       !- Apply Monday
  ,                                       !- Apply Tuesday
  ,                                       !- Apply Wednesday
  ,                                       !- Apply Thursday
  ,                                       !- Apply Friday
  ,                                       !- Apply Saturday
  DateRange,                              !- Date Specification Type
  1,                                      !- Start Month
  1,                                      !- Start Day
  12,                                     !- End Month
  31;                                     !- End Day

OS:Schedule:Day,
  {d0eacd22-d1c4-4f73-8a56-ebaaf6fd86c0}, !- Handle
  Schedule Day 8,                         !- Name
  {5c74a3d1-850b-4f0d-8a91-2ae35d9ab2f9}, !- Schedule Type Limits Name
  ,                                       !- Interpolate to Timestep
  1,                                      !- Hour 1
  0,                                      !- Minute 1
  0,                                      !- Value Until Time 1
  2,                                      !- Hour 2
  0,                                      !- Minute 2
  1,                                      !- Value Until Time 2
  11,                                     !- Hour 3
  0,                                      !- Minute 3
  0,                                      !- Value Until Time 3
  23,                                     !- Hour 4
  0,                                      !- Minute 4
  1,                                      !- Value Until Time 4
  24,                                     !- Hour 5
  0,                                      !- Minute 5
  0;                                      !- Value Until Time 5

