
OS:Version,
  {50ef0f88-84a8-453d-be31-a62d4e3014e9}, !- Handle
  3.9.0;                                  !- Version Identifier

OS:ScheduleTypeLimits,
  {8fe26f6c-d19c-437a-b68c-84bd64ede2f0}, !- Handle
  Always On Discrete Limits,              !- Name
  0,                                      !- Lower Limit Value
  1,                                      !- Upper Limit Value
  Discrete,                               !- Numeric Type
  Availability;                           !- Unit Type

OS:Timestep,
  {b0fa043b-3e91-4705-b798-a26bbea47620}, !- Handle
  6;                                      !- Number of Timesteps per Hour

OS:YearDescription,
  {2759562d-6e36-40de-aa86-5c2198a9d34c}, !- Handle
  ,                                       !- Calendar Year
  Sunday;                                 !- Day of Week for Start Day

OS:Connection,
  {5bae42aa-910b-413c-9bf1-37c522919800}, !- Handle
  ,                                       !- Source Object
  11,                                     !- Outlet Port
  ,                                       !- Target Object
  2;                                      !- Inlet Port

OS:Space,
  {c9532ad7-da0a-45f9-96ed-ea62ab17db64}, !- Handle
  Core_mid,                               !- Name
  {cbc1800d-3058-4bca-9be8-d37e6a76ff55}, !- Space Type Name
  ,                                       !- Default Construction Set Name
  ,                                       !- Default Schedule Set Name
  -0,                                     !- Direction of Relative North {deg}
  5.4876,                                 !- X Origin {m}
  4.5732,                                 !- Y Origin {m}
  19.816,                                 !- Z Origin {m}
  {90e8f18c-4e90-4136-9df3-52f333e3fb0e}, !- Building Story Name
  {70efb602-5458-4982-966b-a5031a5d5c4a}, !- Thermal Zone Name
  Yes,                                    !- Part of Total Floor Area
  ,                                       !- Design Specification Outdoor Air Object Name
  ,                                       !- Building Unit Name
  Autocalculate;                          !- Volume {m3}

OS:Surface,
  {503cbf06-b696-47b8-902a-5f4f090ce948}, !- Handle
  DataCenter_top_ZN_6_Floor,              !- Name
  Floor,                                  !- Surface Type
  {f43e72a5-b9e5-48f1-b66a-aa00ffbaf92c}, !- Construction Name
  {ad63a923-b138-4343-b031-0f686a9aa91f}, !- Space Name
  Adiabatic,                              !- Outside Boundary Condition
  ,                                       !- Outside Boundary Condition Object
  NoSun,                                  !- Sun Exposure
  NoWind,                                 !- Wind Exposure
  0,                                      !- View Factor to Ground
  ,                                       !- Number of Vertices
  0.9144, 39.5918, 0,                     !- X,Y,Z Vertex 1 {m}
  0.9144, 0, 0,                           !- X,Y,Z Vertex 2 {m}
  0, 0, 0,                                !- X,Y,Z Vertex 3 {m}
  0, 39.5918, 0;                          !- X,Y,Z Vertex 4 {m}

OS:Connection,
  {32a16ddd-3d4f-4c9b-b883-8d736da632a9}, !- Handle
  ,                                       !- Source Object
  11,                                     !- Outlet Port
  ,                                       !- Target Object
  2;                                      !- Inlet Port

OS:Space,
  {ad63a923-b138-4343-b031-0f686a9aa91f}, !- Handle
  DataCenter_top_ZN_6,                    !- Name
  {cbc1800d-3058-4bca-9be8-d37e6a76ff55}, !- Space Type Name
  ,                                       !- Default Construction Set Name
  ,                                       !- Default Schedule Set Name
  -0,                                     !- Direction of Relative North {deg}
  4.5732,                                 !- X Origin {m}
  4.5732,                                 !- Y Origin {m}
  43.5952,                                !- Z Origin {m}
  {f4d26ab6-6069-4f95-a4bb-2505ee54b65c}, !- Building Story Name
  {22b27bb9-c297-43f8-8542-d27e5a8f55b4}, !- Thermal Zone Name
  ,                                       !- Part of Total Floor Area
  ,                                       !- Design Specification Outdoor Air Object Name
  ,                                       !- Building Unit Name
  Autocalculate;                          !- Volume {m3}

OS:Surface,
  {9f946c4f-a94d-4946-87a0-204ee59b1052}, !- Handle
  Perimeter_mid_ZN_2_Wall_East,           !- Name
  Wall,                                   !- Surface Type
  ,                                       !- Construction Name
  {7e340c82-5b29-41c5-9ccd-9a28338e4ae1}, !- Space Name
  Outdoors,                               !- Outside Boundary Condition
  ,                                       !- Outside Boundary Condition Object
  SunExposed,                             !- Sun Exposure
  WindExposed,                            !- Wind Exposure
  ,                                       !- View Factor to Ground
  ,                                       !- Number of Vertices
  4.5732, 0, 2.744,                       !- X,Y,Z Vertex 1 {m}
  4.5732, 0, 0,                           !- X,Y,Z Vertex 2 {m}
  4.5732, 48.7381, 0,                     !- X,Y,Z Vertex 3 {m}
  4.5732, 48.7381, 2.744;                 !- X,Y,Z Vertex 4 {m}

OS:Connection,
  {645d04e0-4f17-4ec0-b149-bb89a6ef1e82}, !- Handle
  ,                                       !- Source Object
  11,                                     !- Outlet Port
  ,                                       !- Target Object
  2;                                      !- Inlet Port

OS:Space,
  {7e340c82-5b29-41c5-9ccd-9a28338e4ae1}, !- Handle
  Perimeter_mid_ZN_2,                     !- Name
  {cbc1800d-3058-4bca-9be8-d37e6a76ff55}, !- Space Type Name
  ,                                       !- Default Construction Set Name
  ,                                       !- Default Schedule Set Name
  -0,                                     !- Direction of Relative North {deg}
  68.534,                                 !- X Origin {m}
  0,                                      !- Y Origin {m}
  19.816,                                 !- Z Origin {m}
  {90e8f18c-4e90-4136-9df3-52f333e3fb0e}, !- Building Story Name
  {fee1bd4a-e7ae-4a15-996b-d5fffd905635}, !- Thermal Zone Name
  Yes,                                    !- Part of Total Floor Area
  ,                                       !- Design Specification Outdoor Air Object Name
  ,                                       !- Building Unit Name
  Autocalculate;                          !- Volume {m3}

OS:Surface,
  {370e7613-b020-4b6d-9a06-8f9b943f6665}, !- Handle
  Perimeter_mid_ZN_1_Ceiling,             !- Name
  RoofCeiling,                            !- Surface Type
  ,                                       !- Construction Name
  {fbcda114-4a6f-4d17-ba38-7d71c7b8bbff}, !- Space Name
  Surface,                                !- Outside Boundary Condition
  {9cd5a643-1952-4351-bac4-6ce973890b8f}, !- Outside Boundary Condition Object
  NoSun,                                  !- Sun Exposure
  NoWind,                                 !- Wind Exposure
  ,                                       !- View Factor to Ground
  ,                                       !- Number of Vertices
  73.1072, 0, 2.744,                      !- X,Y,Z Vertex 1 {m}
  68.534, 4.5732, 2.744,                  !- X,Y,Z Vertex 2 {m}
  4.5732, 4.5732, 2.744,                  !- X,Y,Z Vertex 3 {m}
  0, 0, 2.744;                            !- X,Y,Z Vertex 4 {m}

OS:Connection,
  {7abf3751-f702-4fe6-ae5f-b74b2eb0bca6}, !- Handle
  ,                                       !- Source Object
  11,                                     !- Outlet Port
  ,                                       !- Target Object
  2;                                      !- Inlet Port

OS:Space,
  {fbcda114-4a6f-4d17-ba38-7d71c7b8bbff}, !- Handle
  Perimeter_mid_ZN_1,                     !- Name
  {cbc1800d-3058-4bca-9be8-d37e6a76ff55}, !- Space Type Name
  ,                                       !- Default Construction Set Name
  ,                                       !- Default Schedule Set Name
  -0,                                     !- Direction of Relative North {deg}
  0,                                      !- X Origin {m}
  0,                                      !- Y Origin {m}
  19.816,                                 !- Z Origin {m}
  {90e8f18c-4e90-4136-9df3-52f333e3fb0e}, !- Building Story Name
  {611f92b0-3cb0-4fbf-87d0-298b3f70f6be}, !- Thermal Zone Name
  Yes,                                    !- Part of Total Floor Area
  ,                                       !- Design Specification Outdoor Air Object Name
  ,                                       !- Building Unit Name
  Autocalculate;                          !- Volume {m3}

OS:Connection,
  {9393ffb6-9c9d-4309-b9b2-f354ef4e756c}, !- Handle
  ,                                       !- Source Object
  11,                                     !- Outlet Port
  ,                                       !- Target Object
  2;                                      !- Inlet Port

OS:Space,
  {d6fae17a-2423-4ae7-b189-02f65601f395}, !- Handle
  MidFloor_Plenum,                        !- Name
  {89f0d366-eba1-4d30-847b-e0e91684e056}, !- Space Type Name
  ,                                       !- Default Construction Set Name
  ,                                       !- Default Schedule Set Name
  -0,                                     !- Direction of Relative North {deg}
  0,                                      !- X Origin {m}
  0,                                      !- Y Origin {m}
  22.56,                                  !- Z Origin {m}
  {90e8f18c-4e90-4136-9df3-52f333e3fb0e}, !- Building Story Name
  {1b736e01-1e7d-497f-998e-143e740c3c2b}, !- Thermal Zone Name
  No,                                     !- Part of Total Floor Area
  ,                                       !- Design Specification Outdoor Air Object Name
  ,                                       !- Building Unit Name
  Autocalculate;                          !- Volume {m3}

OS:Surface,
  {9cd5a643-1952-4351-bac4-6ce973890b8f}, !- Handle
  Perimeter_mid_ZN_1_Ceiling Reversed,    !- Name
  Floor,                                  !- Surface Type
  ,                                       !- Construction Name
  {d6fae17a-2423-4ae7-b189-02f65601f395}, !- Space Name
  Surface,                                !- Outside Boundary Condition
  {370e7613-b020-4b6d-9a06-8f9b943f6665}, !- Outside Boundary Condition Object
  NoSun,                                  !- Sun Exposure
  NoWind,                                 !- Wind Exposure
  ,                                       !- View Factor to Ground
  ,                                       !- Number of Vertices
  68.534, 4.5732, 0,                      !- X,Y,Z Vertex 1 {m}
  73.1072, 0, 0,                          !- X,Y,Z Vertex 2 {m}
  0, 0, 0,                                !- X,Y,Z Vertex 3 {m}
  4.5732, 4.5732, 0;                      !- X,Y,Z Vertex 4 {m}

OS:Surface,
  {9fc7900b-60c5-4318-be68-c2a994c9c978}, !- Handle
  DataCenter_mid_ZN_6_Wall_West,          !- Name
  Wall,                                   !- Surface Type
  ,                                       !- Construction Name
  {2c6ae4f5-d65e-4636-8802-7d13d7260722}, !- Space Name
  Surface,                                !- Outside Boundary Condition
  {82f55c5e-745b-4c15-a423-60bddbf56c5a}, !- Outside Boundary Condition Object
  NoSun,                                  !- Sun Exposure
  NoWind,                                 !- Wind Exposure
  0,                                      !- View Factor to Ground
  ,                                       !- Number of Vertices
  0, 39.5918, 2.744,                      !- X,Y,Z Vertex 1 {m}
  0, 39.5918, 0,                          !- X,Y,Z Vertex 2 {m}
  0, 0, 0,                                !- X,Y,Z Vertex 3 {m}
  0, 0, 2.744;                            !- X,Y,Z Vertex 4 {m}

OS:Connection,
  {9681051a-f3a5-4053-856c-37ade7c423f7}, !- Handle
  ,                                       !- Source Object
  11,                                     !- Outlet Port
  ,                                       !- Target Object
  2;                                      !- Inlet Port

OS:Space,
  {2c6ae4f5-d65e-4636-8802-7d13d7260722}, !- Handle
  DataCenter_mid_ZN_6,                    !- Name
  {cbc1800d-3058-4bca-9be8-d37e6a76ff55}, !- Space Type Name
  ,                                       !- Default Construction Set Name
  ,                                       !- Default Schedule Set Name
  -0,                                     !- Direction of Relative North {deg}
  4.5732,                                 !- X Origin {m}
  4.5732,                                 !- Y Origin {m}
  19.816,                                 !- Z Origin {m}
  {90e8f18c-4e90-4136-9df3-52f333e3fb0e}, !- Building Story Name
  {4e24a3d6-57c2-487b-85df-f19d0a14217c}, !- Thermal Zone Name
  ,                                       !- Part of Total Floor Area
  ,                                       !- Design Specification Outdoor Air Object Name
  ,                                       !- Building Unit Name
  Autocalculate;                          !- Volume {m3}

OS:Connection,
  {77b940a1-bfdd-4414-ad3c-632f18882d3f}, !- Handle
  ,                                       !- Source Object
  11,                                     !- Outlet Port
  ,                                       !- Target Object
  2;                                      !- Inlet Port

OS:Space,
  {252d5491-4adf-40c7-b2c2-5f3c366963cc}, !- Handle
  Core_bottom,                            !- Name
  {cbc1800d-3058-4bca-9be8-d37e6a76ff55}, !- Space Type Name
  ,                                       !- Default Construction Set Name
  ,                                       !- Default Schedule Set Name
  -0,                                     !- Direction of Relative North {deg}
  5.4876,                                 !- X Origin {m}
  4.5732,                                 !- Y Origin {m}
  0,                                      !- Z Origin {m}
  {1bf14578-5317-4bb7-bb78-67bfc4cef2af}, !- Building Story Name
  {064fdc66-a8c4-4987-b159-a9614238da9f}, !- Thermal Zone Name
  Yes,                                    !- Part of Total Floor Area
  ,                                       !- Design Specification Outdoor Air Object Name
  ,                                       !- Building Unit Name
  Autocalculate;                          !- Volume {m3}

OS:Surface,
  {3fc96f62-dfdc-4573-82ee-671168d1232f}, !- Handle
  DataCenter_basement_ZN_6_Ceiling-Core_bot_ZN_5-PPAutoCreateOther, !- Name
  Floor,                                  !- Surface Type
  ,                                       !- Construction Name
  {252d5491-4adf-40c7-b2c2-5f3c366963cc}, !- Space Name
  Surface,                                !- Outside Boundary Condition
  {9c4cd6ed-9920-48ea-acd5-53d88fdbc4ec}, !- Outside Boundary Condition Object
  NoSun,                                  !- Sun Exposure
  NoWind,                                 !- Wind Exposure
  0,                                      !- View Factor to Ground
  ,                                       !- Number of Vertices
  10.5906, 39.5918, 0,                    !- X,Y,Z Vertex 1 {m}
  10.5906, 0, 0,                          !- X,Y,Z Vertex 2 {m}
  0, 0, 0,                                !- X,Y,Z Vertex 3 {m}
  0, 39.5918, 0;                          !- X,Y,Z Vertex 4 {m}

OS:Surface,
  {8cee6b0e-b327-4162-99af-bdd3fad8a288}, !- Handle
  Core_top_ZN_5_Wall_North-PPAutoCreateOther, !- Name
  Wall,                                   !- Surface Type
  ,                                       !- Construction Name
  {bf3e28c0-5c36-4ba7-8f6b-40c5c095b5f0}, !- Space Name
  Surface,                                !- Outside Boundary Condition
  {72a13a95-e4f4-4099-bbc4-a7b9a3d27dfa}, !- Outside Boundary Condition Object
  NoSun,                                  !- Sun Exposure
  NoWind,                                 !- Wind Exposure
  ,                                       !- View Factor to Ground
  ,                                       !- Number of Vertices
  5.4876, 0, 2.744,                       !- X,Y,Z Vertex 1 {m}
  5.4876, 0, 0,                           !- X,Y,Z Vertex 2 {m}
  68.534, 0, 0,                           !- X,Y,Z Vertex 3 {m}
  68.534, 0, 2.744;                       !- X,Y,Z Vertex 4 {m}

OS:Connection,
  {0e19e1d7-0299-4b30-b129-a244565ae369}, !- Handle
  ,                                       !- Source Object
  11,                                     !- Outlet Port
  ,                                       !- Target Object
  2;                                      !- Inlet Port

OS:Space,
  {bf3e28c0-5c36-4ba7-8f6b-40c5c095b5f0}, !- Handle
  Perimeter_top_ZN_3,                     !- Name
  {cbc1800d-3058-4bca-9be8-d37e6a76ff55}, !- Space Type Name
  ,                                       !- Default Construction Set Name
  ,                                       !- Default Schedule Set Name
  -0,                                     !- Direction of Relative North {deg}
  -7.21911419532262e-16,                  !- X Origin {m}
  44.165,                                 !- Y Origin {m}
  43.5952,                                !- Z Origin {m}
  {f4d26ab6-6069-4f95-a4bb-2505ee54b65c}, !- Building Story Name
  {f7bb2136-1060-4267-9310-2f9e093428ef}, !- Thermal Zone Name
  Yes,                                    !- Part of Total Floor Area
  ,                                       !- Design Specification Outdoor Air Object Name
  ,                                       !- Building Unit Name
  Autocalculate;                          !- Volume {m3}

OS:Surface,
  {df5f6311-1983-4839-adb4-7ba4f4e7bbb8}, !- Handle
  Core_top_ZN_5_Wall_West,                !- Name
  Wall,                                   !- Surface Type
  ,                                       !- Construction Name
  {c37fd6ec-d4bc-468a-8c95-3ae276d0b5cb}, !- Space Name
  Surface,                                !- Outside Boundary Condition
  {3a8bc761-afcd-446c-955c-8e3f0810fe12}, !- Outside Boundary Condition Object
  NoSun,                                  !- Sun Exposure
  NoWind,                                 !- Wind Exposure
  ,                                       !- View Factor to Ground
  ,                                       !- Number of Vertices
  0, 39.5918, 2.744,                      !- X,Y,Z Vertex 1 {m}
  0, 39.5918, 0,                          !- X,Y,Z Vertex 2 {m}
  0, 0, 0,                                !- X,Y,Z Vertex 3 {m}
  0, 0, 2.744;                            !- X,Y,Z Vertex 4 {m}

OS:Connection,
  {8afa0a8b-ee8f-4b3c-8e8f-0ca3fc7dde2f}, !- Handle
  ,                                       !- Source Object
  11,                                     !- Outlet Port
  ,                                       !- Target Object
  2;                                      !- Inlet Port

OS:Space,
  {c37fd6ec-d4bc-468a-8c95-3ae276d0b5cb}, !- Handle
  Core_top,                               !- Name
  {cbc1800d-3058-4bca-9be8-d37e6a76ff55}, !- Space Type Name
  ,                                       !- Default Construction Set Name
  ,                                       !- Default Schedule Set Name
  -0,                                     !- Direction of Relative North {deg}
  5.4876,                                 !- X Origin {m}
  4.5732,                                 !- Y Origin {m}
  43.5952,                                !- Z Origin {m}
  {f4d26ab6-6069-4f95-a4bb-2505ee54b65c}, !- Building Story Name
  {e7095242-4a86-44fc-8876-dad33ebd0007}, !- Thermal Zone Name
  Yes,                                    !- Part of Total Floor Area
  ,                                       !- Design Specification Outdoor Air Object Name
  ,                                       !- Building Unit Name
  Autocalculate;                          !- Volume {m3}

OS:Surface,
  {2faf7f65-dc91-4a4d-b0f7-4f072bfecaca}, !- Handle
  Perimeter_bot_ZN_3_Floor,               !- Name
  Floor,                                  !- Surface Type
  ,                                       !- Construction Name
  {d59c9de6-0b6a-4003-83b3-9abbb0fc11e6}, !- Space Name
  Surface,                                !- Outside Boundary Condition
  {32afe101-496f-43d3-9c79-7a7981fd2075}, !- Outside Boundary Condition Object
  NoSun,                                  !- Sun Exposure
  NoWind,                                 !- Wind Exposure
  ,                                       !- View Factor to Ground
  ,                                       !- Number of Vertices
  73.1072, 4.5731, 0,                     !- X,Y,Z Vertex 1 {m}
  68.534, 0, 0,                           !- X,Y,Z Vertex 2 {m}
  16.0782, 0, 0,                          !- X,Y,Z Vertex 3 {m}
  16.0782, 4.5731, 0;                     !- X,Y,Z Vertex 4 {m}

OS:Connection,
  {3d32fb73-f9c5-4bdc-a228-0ecec70b892f}, !- Handle
  ,                                       !- Source Object
  11,                                     !- Outlet Port
  ,                                       !- Target Object
  2;                                      !- Inlet Port

OS:Space,
  {d59c9de6-0b6a-4003-83b3-9abbb0fc11e6}, !- Handle
  Perimeter_bot_ZN_3,                     !- Name
  {cbc1800d-3058-4bca-9be8-d37e6a76ff55}, !- Space Type Name
  ,                                       !- Default Construction Set Name
  ,                                       !- Default Schedule Set Name
  -0,                                     !- Direction of Relative North {deg}
  0,                                      !- X Origin {m}
  44.165,                                 !- Y Origin {m}
  0,                                      !- Z Origin {m}
  {1bf14578-5317-4bb7-bb78-67bfc4cef2af}, !- Building Story Name
  {37b5c530-ffc1-466d-b242-6f0fb634240d}, !- Thermal Zone Name
  Yes,                                    !- Part of Total Floor Area
  ,                                       !- Design Specification Outdoor Air Object Name
  ,                                       !- Building Unit Name
  Autocalculate;                          !- Volume {m3}

OS:Surface,
  {32149b41-adb7-4b41-ad95-c08825e09295}, !- Handle
  DataCenter_basement_ZN_6_Ceiling-Perimeter_bot_ZN_3-PPAutoCreateOther, !- Name
  Floor,                                  !- Surface Type
  ,                                       !- Construction Name
  {d59c9de6-0b6a-4003-83b3-9abbb0fc11e6}, !- Space Name
  Surface,                                !- Outside Boundary Condition
  {b1dd3025-42eb-41bc-bddf-fec82b89cafe}, !- Outside Boundary Condition Object
  NoSun,                                  !- Sun Exposure
  NoWind,                                 !- Wind Exposure
  0,                                      !- View Factor to Ground
  ,                                       !- Number of Vertices
  16.0782, 4.5731, 0,                     !- X,Y,Z Vertex 1 {m}
  16.0782, 0, 0,                          !- X,Y,Z Vertex 2 {m}
  4.5732, 0, 0,                           !- X,Y,Z Vertex 3 {m}
  0, 4.5731, 0;                           !- X,Y,Z Vertex 4 {m}

OS:Surface,
  {854b52f5-21fb-456c-860e-acb024deb99a}, !- Handle
  Basement_Wall_North,                    !- Name
  Wall,                                   !- Surface Type
  {c852eff2-31d1-4642-a14a-dd63db94155a}, !- Construction Name
  {5eccad29-dadd-43c0-a26c-31e00e7702be}, !- Space Name
  Foundation,                             !- Outside Boundary Condition
  {3c8dffe9-a0de-412f-b607-b28bddb45479}, !- Outside Boundary Condition Object
  NoSun,                                  !- Sun Exposure
  NoWind,                                 !- Wind Exposure
  0,                                      !- View Factor to Ground
  ,                                       !- Number of Vertices
  57.0278, 48.7381, 2.439,                !- X,Y,Z Vertex 1 {m}
  57.0278, 48.7381, 0,                    !- X,Y,Z Vertex 2 {m}
  0, 48.7381, 0,                          !- X,Y,Z Vertex 3 {m}
  0, 48.7381, 2.439;                      !- X,Y,Z Vertex 4 {m}

OS:Connection,
  {369ba6a2-fece-4fdc-b5da-a7d152f0d596}, !- Handle
  ,                                       !- Source Object
  11,                                     !- Outlet Port
  ,                                       !- Target Object
  2;                                      !- Inlet Port

OS:Space,
  {5eccad29-dadd-43c0-a26c-31e00e7702be}, !- Handle
  Basement,                               !- Name
  {5abd617c-0032-4623-94a3-ca7b89d01fa8}, !- Space Type Name
  ,                                       !- Default Construction Set Name
  ,                                       !- Default Schedule Set Name
  -0,                                     !- Direction of Relative North {deg}
  16.0794,                                !- X Origin {m}
  0,                                      !- Y Origin {m}
  -2.439,                                 !- Z Origin {m}
  {34fed859-ffd9-4b75-89d6-fc353a47f793}, !- Building Story Name
  {1ee3e9b5-8c21-4f76-b373-6d4d8d2e4b57}, !- Thermal Zone Name
  Yes,                                    !- Part of Total Floor Area
  ,                                       !- Design Specification Outdoor Air Object Name
  ,                                       !- Building Unit Name
  Autocalculate;                          !- Volume {m3}

OS:Surface,
  {4ac6ea44-6fad-4d22-9242-726039b5b7bb}, !- Handle
  Perimeter_bot_ZN_4_Wall_South-PPAutoCreateOther, !- Name
  Wall,                                   !- Surface Type
  ,                                       !- Construction Name
  {2ff425f9-c1f4-46e4-a7b6-d29a1f6709fc}, !- Space Name
  Surface,                                !- Outside Boundary Condition
  {bc756393-0073-4502-8f6d-e63a633caa70}, !- Outside Boundary Condition Object
  NoSun,                                  !- Sun Exposure
  NoWind,                                 !- Wind Exposure
  ,                                       !- View Factor to Ground
  ,                                       !- Number of Vertices
  4.5732, 4.5732, 2.744,                  !- X,Y,Z Vertex 1 {m}
  4.5732, 4.5732, 0,                      !- X,Y,Z Vertex 2 {m}
  0, 0, 0,                                !- X,Y,Z Vertex 3 {m}
  0, 0, 2.744;                            !- X,Y,Z Vertex 4 {m}

OS:Connection,
  {bd5182e7-3f50-417b-ad69-5b0a16f52fb6}, !- Handle
  ,                                       !- Source Object
  11,                                     !- Outlet Port
  ,                                       !- Target Object
  2;                                      !- Inlet Port

OS:Space,
  {2ff425f9-c1f4-46e4-a7b6-d29a1f6709fc}, !- Handle
  Perimeter_bot_ZN_1,                     !- Name
  {cbc1800d-3058-4bca-9be8-d37e6a76ff55}, !- Space Type Name
  ,                                       !- Default Construction Set Name
  ,                                       !- Default Schedule Set Name
  -0,                                     !- Direction of Relative North {deg}
  0,                                      !- X Origin {m}
  0,                                      !- Y Origin {m}
  0,                                      !- Z Origin {m}
  {1bf14578-5317-4bb7-bb78-67bfc4cef2af}, !- Building Story Name
  {1e749eac-b7c9-459f-9650-7ba4e0f8ff00}, !- Thermal Zone Name
  Yes,                                    !- Part of Total Floor Area
  ,                                       !- Design Specification Outdoor Air Object Name
  ,                                       !- Building Unit Name
  Autocalculate;                          !- Volume {m3}

OS:Surface,
  {348fd855-e97f-4cdb-a25d-8816afdd6950}, !- Handle
  Core_mid_ZN_5_Floor,                    !- Name
  Floor,                                  !- Surface Type
  {f43e72a5-b9e5-48f1-b66a-aa00ffbaf92c}, !- Construction Name
  {c9532ad7-da0a-45f9-96ed-ea62ab17db64}, !- Space Name
  Adiabatic,                              !- Outside Boundary Condition
  ,                                       !- Outside Boundary Condition Object
  NoSun,                                  !- Sun Exposure
  NoWind,                                 !- Wind Exposure
  ,                                       !- View Factor to Ground
  ,                                       !- Number of Vertices
  63.0464, 39.5918, 0,                    !- X,Y,Z Vertex 1 {m}
  63.0464, 0, 0,                          !- X,Y,Z Vertex 2 {m}
  0, 0, 0,                                !- X,Y,Z Vertex 3 {m}
  0, 39.5918, 0;                          !- X,Y,Z Vertex 4 {m}

OS:Surface,
  {32afe101-496f-43d3-9c79-7a7981fd2075}, !- Handle
  Perimeter_bot_ZN_3_Floor-PPAutoCreateOther, !- Name
  RoofCeiling,                            !- Surface Type
  ,                                       !- Construction Name
  {5eccad29-dadd-43c0-a26c-31e00e7702be}, !- Space Name
  Surface,                                !- Outside Boundary Condition
  {2faf7f65-dc91-4a4d-b0f7-4f072bfecaca}, !- Outside Boundary Condition Object
  NoSun,                                  !- Sun Exposure
  NoWind,                                 !- Wind Exposure
  0,                                      !- View Factor to Ground
  ,                                       !- Number of Vertices
  52.4546, 44.165, 2.439,                 !- X,Y,Z Vertex 1 {m}
  57.0278, 48.7381, 2.439,                !- X,Y,Z Vertex 2 {m}
  0, 48.7381, 2.439,                      !- X,Y,Z Vertex 3 {m}
  0, 44.165, 2.439;                       !- X,Y,Z Vertex 4 {m}

OS:Surface,
  {0f1914d6-ade6-41b4-8464-a6e8d7b35a54}, !- Handle
  Perimeter_mid_ZN_3_Wall_North,          !- Name
  Wall,                                   !- Surface Type
  ,                                       !- Construction Name
  {acc296c2-5131-4947-b8bf-97711c02ad52}, !- Space Name
  Outdoors,                               !- Outside Boundary Condition
  ,                                       !- Outside Boundary Condition Object
  SunExposed,                             !- Sun Exposure
  WindExposed,                            !- Wind Exposure
  ,                                       !- View Factor to Ground
  ,                                       !- Number of Vertices
  73.1072, 4.5731, 2.744,                 !- X,Y,Z Vertex 1 {m}
  73.1072, 4.5731, 0,                     !- X,Y,Z Vertex 2 {m}
  0, 4.5731, 0,                           !- X,Y,Z Vertex 3 {m}
  0, 4.5731, 2.744;                       !- X,Y,Z Vertex 4 {m}

OS:Connection,
  {4bef2448-43f2-4269-a794-d6d35454c2e8}, !- Handle
  ,                                       !- Source Object
  11,                                     !- Outlet Port
  ,                                       !- Target Object
  2;                                      !- Inlet Port

OS:Space,
  {acc296c2-5131-4947-b8bf-97711c02ad52}, !- Handle
  Perimeter_mid_ZN_3,                     !- Name
  {cbc1800d-3058-4bca-9be8-d37e6a76ff55}, !- Space Type Name
  ,                                       !- Default Construction Set Name
  ,                                       !- Default Schedule Set Name
  -0,                                     !- Direction of Relative North {deg}
  0,                                      !- X Origin {m}
  44.165,                                 !- Y Origin {m}
  19.816,                                 !- Z Origin {m}
  {90e8f18c-4e90-4136-9df3-52f333e3fb0e}, !- Building Story Name
  {8a893bfa-ad7b-479d-b3a2-629d6315bbd4}, !- Thermal Zone Name
  Yes,                                    !- Part of Total Floor Area
  ,                                       !- Design Specification Outdoor Air Object Name
  ,                                       !- Building Unit Name
  Autocalculate;                          !- Volume {m3}

OS:Surface,
  {ec5ced3e-87c0-415a-9ceb-d3bad643a050}, !- Handle
  Core_bot_ZN_5_Wall_South-PPAutoCreateOther, !- Name
  Wall,                                   !- Surface Type
  ,                                       !- Construction Name
  {2ff425f9-c1f4-46e4-a7b6-d29a1f6709fc}, !- Space Name
  Surface,                                !- Outside Boundary Condition
  {268a7e22-63ae-4eb3-86fe-ead5ac1ec3cb}, !- Outside Boundary Condition Object
  NoSun,                                  !- Sun Exposure
  NoWind,                                 !- Wind Exposure
  0,                                      !- View Factor to Ground
  ,                                       !- Number of Vertices
  68.534, 4.5732, 2.744,                  !- X,Y,Z Vertex 1 {m}
  68.534, 4.5732, 0,                      !- X,Y,Z Vertex 2 {m}
  5.4876, 4.5732, 0,                      !- X,Y,Z Vertex 3 {m}
  5.4876, 4.5732, 2.744;                  !- X,Y,Z Vertex 4 {m}

OS:Surface,
  {3d4da348-f579-48a3-a1d9-b5c14b19b5ed}, !- Handle
  DataCenter_mid_ZN_6_Wall_North-PPAutoCreateOther, !- Name
  Wall,                                   !- Surface Type
  ,                                       !- Construction Name
  {acc296c2-5131-4947-b8bf-97711c02ad52}, !- Space Name
  Surface,                                !- Outside Boundary Condition
  {22e35ab3-431d-400d-baa8-2de55185eb9d}, !- Outside Boundary Condition Object
  NoSun,                                  !- Sun Exposure
  NoWind,                                 !- Wind Exposure
  0,                                      !- View Factor to Ground
  ,                                       !- Number of Vertices
  4.5732, 0, 2.744,                       !- X,Y,Z Vertex 1 {m}
  4.5732, 0, 0,                           !- X,Y,Z Vertex 2 {m}
  5.4876, 0, 0,                           !- X,Y,Z Vertex 3 {m}
  5.4876, 0, 2.744;                       !- X,Y,Z Vertex 4 {m}

OS:Surface,
  {7e4d234e-0c7f-491f-aa72-623b5d531074}, !- Handle
  Perimeter_top_ZN_2_Floor,               !- Name
  Floor,                                  !- Surface Type
  {f43e72a5-b9e5-48f1-b66a-aa00ffbaf92c}, !- Construction Name
  {fef7f608-2812-417a-a2ec-fcc3d22db84e}, !- Space Name
  Adiabatic,                              !- Outside Boundary Condition
  ,                                       !- Outside Boundary Condition Object
  NoSun,                                  !- Sun Exposure
  NoWind,                                 !- Wind Exposure
  ,                                       !- View Factor to Ground
  ,                                       !- Number of Vertices
  4.5732, 48.7381, 0,                     !- X,Y,Z Vertex 1 {m}
  4.5732, 0, 0,                           !- X,Y,Z Vertex 2 {m}
  0, 4.5732, 0,                           !- X,Y,Z Vertex 3 {m}
  0, 44.165, 0;                           !- X,Y,Z Vertex 4 {m}

OS:Connection,
  {f1438db1-853f-48df-8564-c718f1b533e1}, !- Handle
  ,                                       !- Source Object
  11,                                     !- Outlet Port
  ,                                       !- Target Object
  2;                                      !- Inlet Port

OS:Space,
  {fef7f608-2812-417a-a2ec-fcc3d22db84e}, !- Handle
  Perimeter_top_ZN_2,                     !- Name
  {cbc1800d-3058-4bca-9be8-d37e6a76ff55}, !- Space Type Name
  ,                                       !- Default Construction Set Name
  ,                                       !- Default Schedule Set Name
  -0,                                     !- Direction of Relative North {deg}
  68.534,                                 !- X Origin {m}
  0,                                      !- Y Origin {m}
  43.5952,                                !- Z Origin {m}
  {f4d26ab6-6069-4f95-a4bb-2505ee54b65c}, !- Building Story Name
  {2e09600d-e1ae-4db7-92ed-5da91eca3c6f}, !- Thermal Zone Name
  Yes,                                    !- Part of Total Floor Area
  ,                                       !- Design Specification Outdoor Air Object Name
  ,                                       !- Building Unit Name
  Autocalculate;                          !- Volume {m3}

OS:Surface,
  {a6970fb2-9438-492c-b381-0e01c4325c0f}, !- Handle
  Perimeter_bot_ZN_3_Wall_North,          !- Name
  Wall,                                   !- Surface Type
  ,                                       !- Construction Name
  {d59c9de6-0b6a-4003-83b3-9abbb0fc11e6}, !- Space Name
  Outdoors,                               !- Outside Boundary Condition
  ,                                       !- Outside Boundary Condition Object
  SunExposed,                             !- Sun Exposure
  WindExposed,                            !- Wind Exposure
  ,                                       !- View Factor to Ground
  ,                                       !- Number of Vertices
  73.1072, 4.5731, 2.744,                 !- X,Y,Z Vertex 1 {m}
  73.1072, 4.5731, 0,                     !- X,Y,Z Vertex 2 {m}
  0, 4.5731, 0,                           !- X,Y,Z Vertex 3 {m}
  0, 4.5731, 2.744;                       !- X,Y,Z Vertex 4 {m}

OS:Surface,
  {4dd079cc-3c4c-49b7-8eeb-039223867855}, !- Handle
  Perimeter_top_ZN_1_Wall_South,          !- Name
  Wall,                                   !- Surface Type
  ,                                       !- Construction Name
  {6f883ada-330c-4aa9-aba9-5812022ed701}, !- Space Name
  Outdoors,                               !- Outside Boundary Condition
  ,                                       !- Outside Boundary Condition Object
  SunExposed,                             !- Sun Exposure
  WindExposed,                            !- Wind Exposure
  ,                                       !- View Factor to Ground
  ,                                       !- Number of Vertices
  0, 0, 2.744,                            !- X,Y,Z Vertex 1 {m}
  0, 0, 0,                                !- X,Y,Z Vertex 2 {m}
  73.1072, 0, 0,                          !- X,Y,Z Vertex 3 {m}
  73.1072, 0, 2.744;                      !- X,Y,Z Vertex 4 {m}

OS:Connection,
  {7d324164-b702-48e8-895a-1af87cb5d98d}, !- Handle
  ,                                       !- Source Object
  11,                                     !- Outlet Port
  ,                                       !- Target Object
  2;                                      !- Inlet Port

OS:Space,
  {6f883ada-330c-4aa9-aba9-5812022ed701}, !- Handle
  Perimeter_top_ZN_1,                     !- Name
  {cbc1800d-3058-4bca-9be8-d37e6a76ff55}, !- Space Type Name
  ,                                       !- Default Construction Set Name
  ,                                       !- Default Schedule Set Name
  -0,                                     !- Direction of Relative North {deg}
  -7.21911419532262e-16,                  !- X Origin {m}
  0,                                      !- Y Origin {m}
  43.5952,                                !- Z Origin {m}
  {f4d26ab6-6069-4f95-a4bb-2505ee54b65c}, !- Building Story Name
  {454029ab-55d5-4593-a5de-b82d9388ad3c}, !- Thermal Zone Name
  Yes,                                    !- Part of Total Floor Area
  ,                                       !- Design Specification Outdoor Air Object Name
  ,                                       !- Building Unit Name
  Autocalculate;                          !- Volume {m3}

OS:Surface,
  {37aa0144-c104-405c-94fd-41890879a3f4}, !- Handle
  Core_mid_ZN_5_Wall_North,               !- Name
  Wall,                                   !- Surface Type
  ,                                       !- Construction Name
  {c9532ad7-da0a-45f9-96ed-ea62ab17db64}, !- Space Name
  Surface,                                !- Outside Boundary Condition
  {40c6b486-749c-4d5e-923b-073e53a6111d}, !- Outside Boundary Condition Object
  NoSun,                                  !- Sun Exposure
  NoWind,                                 !- Wind Exposure
  ,                                       !- View Factor to Ground
  ,                                       !- Number of Vertices
  63.0464, 39.5918, 2.744,                !- X,Y,Z Vertex 1 {m}
  63.0464, 39.5918, 0,                    !- X,Y,Z Vertex 2 {m}
  0, 39.5918, 0,                          !- X,Y,Z Vertex 3 {m}
  0, 39.5918, 2.744;                      !- X,Y,Z Vertex 4 {m}

OS:Surface,
  {f5f24163-243c-4464-9eda-91f98c0e1751}, !- Handle
  Perimeter_mid_ZN_4_Floor,               !- Name
  Floor,                                  !- Surface Type
  {f43e72a5-b9e5-48f1-b66a-aa00ffbaf92c}, !- Construction Name
  {fa6dd353-dcdd-40da-857d-4470740aa0d0}, !- Space Name
  Adiabatic,                              !- Outside Boundary Condition
  ,                                       !- Outside Boundary Condition Object
  NoSun,                                  !- Sun Exposure
  NoWind,                                 !- Wind Exposure
  ,                                       !- View Factor to Ground
  ,                                       !- Number of Vertices
  0, 48.7381, 0,                          !- X,Y,Z Vertex 1 {m}
  4.5732, 44.165, 0,                      !- X,Y,Z Vertex 2 {m}
  4.5732, 4.5732, 0,                      !- X,Y,Z Vertex 3 {m}
  0, 0, 0;                                !- X,Y,Z Vertex 4 {m}

OS:Connection,
  {76926763-67c0-4353-a559-bf83397724a0}, !- Handle
  ,                                       !- Source Object
  11,                                     !- Outlet Port
  ,                                       !- Target Object
  2;                                      !- Inlet Port

OS:Space,
  {fa6dd353-dcdd-40da-857d-4470740aa0d0}, !- Handle
  Perimeter_mid_ZN_4,                     !- Name
  {cbc1800d-3058-4bca-9be8-d37e6a76ff55}, !- Space Type Name
  ,                                       !- Default Construction Set Name
  ,                                       !- Default Schedule Set Name
  -0,                                     !- Direction of Relative North {deg}
  0,                                      !- X Origin {m}
  0,                                      !- Y Origin {m}
  19.816,                                 !- Z Origin {m}
  {90e8f18c-4e90-4136-9df3-52f333e3fb0e}, !- Building Story Name
  {bd38caa4-f7bb-42fb-9b09-be0289af6f93}, !- Thermal Zone Name
  Yes,                                    !- Part of Total Floor Area
  ,                                       !- Design Specification Outdoor Air Object Name
  ,                                       !- Building Unit Name
  Autocalculate;                          !- Volume {m3}

OS:Surface,
  {7231acf3-7b31-48ea-bb10-f50f61b62394}, !- Handle
  TopFloor_Plenum_Wall_North,             !- Name
  Wall,                                   !- Surface Type
  ,                                       !- Construction Name
  {d90bdd43-239b-4cf7-ae27-6c4e6b492a91}, !- Space Name
  Outdoors,                               !- Outside Boundary Condition
  ,                                       !- Outside Boundary Condition Object
  SunExposed,                             !- Sun Exposure
  WindExposed,                            !- Wind Exposure
  ,                                       !- View Factor to Ground
  ,                                       !- Number of Vertices
  0, 0, 1.2192,                           !- X,Y,Z Vertex 1 {m}
  0, 0, 0,                                !- X,Y,Z Vertex 2 {m}
  73.1072, 0, 0,                          !- X,Y,Z Vertex 3 {m}
  73.1072, 0, 1.2192;                     !- X,Y,Z Vertex 4 {m}

OS:Connection,
  {e422ee53-a159-424b-bad0-e6e749d45451}, !- Handle
  ,                                       !- Source Object
  11,                                     !- Outlet Port
  ,                                       !- Target Object
  2;                                      !- Inlet Port

OS:Space,
  {d90bdd43-239b-4cf7-ae27-6c4e6b492a91}, !- Handle
  TopFloor_Plenum,                        !- Name
  {89f0d366-eba1-4d30-847b-e0e91684e056}, !- Space Type Name
  ,                                       !- Default Construction Set Name
  ,                                       !- Default Schedule Set Name
  -0,                                     !- Direction of Relative North {deg}
  -7.21911419532262e-16,                  !- X Origin {m}
  0,                                      !- Y Origin {m}
  46.3392,                                !- Z Origin {m}
  {f4d26ab6-6069-4f95-a4bb-2505ee54b65c}, !- Building Story Name
  {d9a4e131-89fd-4dae-aa0e-730002186217}, !- Thermal Zone Name
  No,                                     !- Part of Total Floor Area
  ,                                       !- Design Specification Outdoor Air Object Name
  ,                                       !- Building Unit Name
  Autocalculate;                          !- Volume {m3}

OS:Surface,
  {72a13a95-e4f4-4099-bbc4-a7b9a3d27dfa}, !- Handle
  Core_top_ZN_5_Wall_North,               !- Name
  Wall,                                   !- Surface Type
  ,                                       !- Construction Name
  {c37fd6ec-d4bc-468a-8c95-3ae276d0b5cb}, !- Space Name
  Surface,                                !- Outside Boundary Condition
  {8cee6b0e-b327-4162-99af-bdd3fad8a288}, !- Outside Boundary Condition Object
  NoSun,                                  !- Sun Exposure
  NoWind,                                 !- Wind Exposure
  ,                                       !- View Factor to Ground
  ,                                       !- Number of Vertices
  63.0464, 39.5918, 2.744,                !- X,Y,Z Vertex 1 {m}
  63.0464, 39.5918, 0,                    !- X,Y,Z Vertex 2 {m}
  0, 39.5918, 0,                          !- X,Y,Z Vertex 3 {m}
  0, 39.5918, 2.744;                      !- X,Y,Z Vertex 4 {m}

OS:Surface,
  {6b8053ca-b04c-40e5-8ba4-10cc9fc55980}, !- Handle
  Core_top_ZN_5_Wall_South-PPAutoCreateOther, !- Name
  Wall,                                   !- Surface Type
  ,                                       !- Construction Name
  {6f883ada-330c-4aa9-aba9-5812022ed701}, !- Space Name
  Surface,                                !- Outside Boundary Condition
  {ea4d5465-e417-4de3-87be-a97e95712b29}, !- Outside Boundary Condition Object
  NoSun,                                  !- Sun Exposure
  NoWind,                                 !- Wind Exposure
  0,                                      !- View Factor to Ground
  ,                                       !- Number of Vertices
  68.534, 4.5732, 2.744,                  !- X,Y,Z Vertex 1 {m}
  68.534, 4.5732, 0,                      !- X,Y,Z Vertex 2 {m}
  5.4876, 4.5732, 0,                      !- X,Y,Z Vertex 3 {m}
  5.4876, 4.5732, 2.744;                  !- X,Y,Z Vertex 4 {m}

OS:Surface,
  {b0087f00-3fb0-4aed-8f26-2feb89aefd87}, !- Handle
  GroundFloor_Plenum_Wall_East,           !- Name
  Wall,                                   !- Surface Type
  ,                                       !- Construction Name
  {b30407eb-ffd6-40ad-a549-5d1cfee1d345}, !- Space Name
  Outdoors,                               !- Outside Boundary Condition
  ,                                       !- Outside Boundary Condition Object
  SunExposed,                             !- Sun Exposure
  WindExposed,                            !- Wind Exposure
  ,                                       !- View Factor to Ground
  ,                                       !- Number of Vertices
  73.1072, 0, 1.2192,                     !- X,Y,Z Vertex 1 {m}
  73.1072, 0, 0,                          !- X,Y,Z Vertex 2 {m}
  73.1072, 48.7381, 0,                    !- X,Y,Z Vertex 3 {m}
  73.1072, 48.7381, 1.2192;               !- X,Y,Z Vertex 4 {m}

OS:Connection,
  {13570741-0dfe-441d-a7e6-81ef69c8431a}, !- Handle
  ,                                       !- Source Object
  11,                                     !- Outlet Port
  ,                                       !- Target Object
  2;                                      !- Inlet Port

OS:Space,
  {b30407eb-ffd6-40ad-a549-5d1cfee1d345}, !- Handle
  GroundFloor_Plenum,                     !- Name
  {89f0d366-eba1-4d30-847b-e0e91684e056}, !- Space Type Name
  ,                                       !- Default Construction Set Name
  ,                                       !- Default Schedule Set Name
  -0,                                     !- Direction of Relative North {deg}
  0,                                      !- X Origin {m}
  0,                                      !- Y Origin {m}
  2.744,                                  !- Z Origin {m}
  {1bf14578-5317-4bb7-bb78-67bfc4cef2af}, !- Building Story Name
  {a7633495-f550-422c-b870-c2bb4b4d4205}, !- Thermal Zone Name
  No,                                     !- Part of Total Floor Area
  ,                                       !- Design Specification Outdoor Air Object Name
  ,                                       !- Building Unit Name
  Autocalculate;                          !- Volume {m3}

OS:Surface,
  {3270cf22-d4c9-4e55-a8ea-59c5909ad282}, !- Handle
  DataCenter_mid_ZN_6_ceiling,            !- Name
  RoofCeiling,                            !- Surface Type
  ,                                       !- Construction Name
  {2c6ae4f5-d65e-4636-8802-7d13d7260722}, !- Space Name
  Surface,                                !- Outside Boundary Condition
  {e838050d-fc73-424e-959f-a53b31429564}, !- Outside Boundary Condition Object
  NoSun,                                  !- Sun Exposure
  NoWind,                                 !- Wind Exposure
  0,                                      !- View Factor to Ground
  ,                                       !- Number of Vertices
  0.9144, 0, 2.744,                       !- X,Y,Z Vertex 1 {m}
  0.9144, 39.5918, 2.744,                 !- X,Y,Z Vertex 2 {m}
  0, 39.5918, 2.744,                      !- X,Y,Z Vertex 3 {m}
  0, 0, 2.744;                            !- X,Y,Z Vertex 4 {m}

OS:Surface,
  {e838050d-fc73-424e-959f-a53b31429564}, !- Handle
  DataCenter_mid_ZN_6_ceiling Reversed,   !- Name
  Floor,                                  !- Surface Type
  ,                                       !- Construction Name
  {d6fae17a-2423-4ae7-b189-02f65601f395}, !- Space Name
  Surface,                                !- Outside Boundary Condition
  {3270cf22-d4c9-4e55-a8ea-59c5909ad282}, !- Outside Boundary Condition Object
  NoSun,                                  !- Sun Exposure
  NoWind,                                 !- Wind Exposure
  ,                                       !- View Factor to Ground
  ,                                       !- Number of Vertices
  5.4876, 44.165, 0,                      !- X,Y,Z Vertex 1 {m}
  5.4876, 4.5732, 0,                      !- X,Y,Z Vertex 2 {m}
  4.5732, 4.5732, 0,                      !- X,Y,Z Vertex 3 {m}
  4.5732, 44.165, 0;                      !- X,Y,Z Vertex 4 {m}

OS:Surface,
  {268a7e22-63ae-4eb3-86fe-ead5ac1ec3cb}, !- Handle
  Core_bot_ZN_5_Wall_South,               !- Name
  Wall,                                   !- Surface Type
  ,                                       !- Construction Name
  {252d5491-4adf-40c7-b2c2-5f3c366963cc}, !- Space Name
  Surface,                                !- Outside Boundary Condition
  {ec5ced3e-87c0-415a-9ceb-d3bad643a050}, !- Outside Boundary Condition Object
  NoSun,                                  !- Sun Exposure
  NoWind,                                 !- Wind Exposure
  0,                                      !- View Factor to Ground
  ,                                       !- Number of Vertices
  0, 0, 2.744,                            !- X,Y,Z Vertex 1 {m}
  0, 0, 0,                                !- X,Y,Z Vertex 2 {m}
  63.0464, 0, 0,                          !- X,Y,Z Vertex 3 {m}
  63.0464, 0, 2.744;                      !- X,Y,Z Vertex 4 {m}

OS:Surface,
  {7e083f99-2b31-4363-9b2a-f6d084494fb0}, !- Handle
  DataCenter_top_ZN_6_Wall_West-PPAutoCreateOther, !- Name
  Wall,                                   !- Surface Type
  ,                                       !- Construction Name
  {6cd1cb1e-ec74-478a-b671-0892d887d9ed}, !- Space Name
  Surface,                                !- Outside Boundary Condition
  {ed92cf24-f8ab-4211-92b7-601209dfbe32}, !- Outside Boundary Condition Object
  NoSun,                                  !- Sun Exposure
  NoWind,                                 !- Wind Exposure
  0,                                      !- View Factor to Ground
  ,                                       !- Number of Vertices
  4.5732, 4.5732, 2.744,                  !- X,Y,Z Vertex 1 {m}
  4.5732, 4.5732, 0,                      !- X,Y,Z Vertex 2 {m}
  4.5732, 44.165, 0,                      !- X,Y,Z Vertex 3 {m}
  4.5732, 44.165, 2.744;                  !- X,Y,Z Vertex 4 {m}

OS:Connection,
  {f99e5a14-73ce-4e5a-8c00-811ae04bffdf}, !- Handle
  ,                                       !- Source Object
  11,                                     !- Outlet Port
  ,                                       !- Target Object
  2;                                      !- Inlet Port

OS:Space,
  {6cd1cb1e-ec74-478a-b671-0892d887d9ed}, !- Handle
  Perimeter_top_ZN_4,                     !- Name
  {cbc1800d-3058-4bca-9be8-d37e6a76ff55}, !- Space Type Name
  ,                                       !- Default Construction Set Name
  ,                                       !- Default Schedule Set Name
  -0,                                     !- Direction of Relative North {deg}
  -7.21911419532262e-16,                  !- X Origin {m}
  0,                                      !- Y Origin {m}
  43.5952,                                !- Z Origin {m}
  {f4d26ab6-6069-4f95-a4bb-2505ee54b65c}, !- Building Story Name
  {8c9e9b65-a6d9-4bab-8d32-8ce302b9e67c}, !- Thermal Zone Name
  Yes,                                    !- Part of Total Floor Area
  ,                                       !- Design Specification Outdoor Air Object Name
  ,                                       !- Building Unit Name
  Autocalculate;                          !- Volume {m3}

OS:Surface,
  {22589ad2-e202-40f0-8ea4-3a1465dc671e}, !- Handle
  Perimeter_top_ZN_3_Wall_North,          !- Name
  Wall,                                   !- Surface Type
  ,                                       !- Construction Name
  {bf3e28c0-5c36-4ba7-8f6b-40c5c095b5f0}, !- Space Name
  Outdoors,                               !- Outside Boundary Condition
  ,                                       !- Outside Boundary Condition Object
  SunExposed,                             !- Sun Exposure
  WindExposed,                            !- Wind Exposure
  ,                                       !- View Factor to Ground
  ,                                       !- Number of Vertices
  73.1072, 4.5731, 2.744,                 !- X,Y,Z Vertex 1 {m}
  73.1072, 4.5731, 0,                     !- X,Y,Z Vertex 2 {m}
  0, 4.5731, 0,                           !- X,Y,Z Vertex 3 {m}
  0, 4.5731, 2.744;                       !- X,Y,Z Vertex 4 {m}

OS:Surface,
  {a6919b0b-58df-46c6-8fe2-a963546c6f00}, !- Handle
  Perimeter_bot_ZN_1_Wall_South,          !- Name
  Wall,                                   !- Surface Type
  ,                                       !- Construction Name
  {2ff425f9-c1f4-46e4-a7b6-d29a1f6709fc}, !- Space Name
  Outdoors,                               !- Outside Boundary Condition
  ,                                       !- Outside Boundary Condition Object
  SunExposed,                             !- Sun Exposure
  WindExposed,                            !- Wind Exposure
  ,                                       !- View Factor to Ground
  ,                                       !- Number of Vertices
  0, 0, 2.744,                            !- X,Y,Z Vertex 1 {m}
  0, 0, 0,                                !- X,Y,Z Vertex 2 {m}
  73.1072, 0, 0,                          !- X,Y,Z Vertex 3 {m}
  73.1072, 0, 2.744;                      !- X,Y,Z Vertex 4 {m}

OS:Surface,
  {99fa349e-a325-406a-8cf7-4e0a1c73bbd4}, !- Handle
  Building_Roof,                          !- Name
  RoofCeiling,                            !- Surface Type
  ,                                       !- Construction Name
  {d90bdd43-239b-4cf7-ae27-6c4e6b492a91}, !- Space Name
  Outdoors,                               !- Outside Boundary Condition
  ,                                       !- Outside Boundary Condition Object
  SunExposed,                             !- Sun Exposure
  WindExposed,                            !- Wind Exposure
  ,                                       !- View Factor to Ground
  ,                                       !- Number of Vertices
  73.1072, 0, 1.2192,                     !- X,Y,Z Vertex 1 {m}
  73.1072, 48.7381, 1.2192,               !- X,Y,Z Vertex 2 {m}
  0, 48.7381, 1.2192,                     !- X,Y,Z Vertex 3 {m}
  0, 0, 1.2192;                           !- X,Y,Z Vertex 4 {m}

OS:Surface,
  {b1dd3025-42eb-41bc-bddf-fec82b89cafe}, !- Handle
  DataCenter_basement_ZN_6_Ceiling-Perimeter_bot_ZN_3, !- Name
  RoofCeiling,                            !- Surface Type
  ,                                       !- Construction Name
  {c7138cc2-589b-4e88-aa9b-6561b087ce28}, !- Space Name
  Surface,                                !- Outside Boundary Condition
  {32149b41-adb7-4b41-ad95-c08825e09295}, !- Outside Boundary Condition Object
  NoSun,                                  !- Sun Exposure
  NoWind,                                 !- Wind Exposure
  0,                                      !- View Factor to Ground
  ,                                       !- Number of Vertices
  16.0782, 44.165, 2.439,                 !- X,Y,Z Vertex 1 {m}
  16.0782, 48.7381, 2.439,                !- X,Y,Z Vertex 2 {m}
  0, 48.7381, 2.439,                      !- X,Y,Z Vertex 3 {m}
  4.5732, 44.165, 2.439;                  !- X,Y,Z Vertex 4 {m}

OS:Connection,
  {f02bb41f-83af-40d9-963d-acaea1cef39e}, !- Handle
  ,                                       !- Source Object
  11,                                     !- Outlet Port
  ,                                       !- Target Object
  2;                                      !- Inlet Port

OS:Space,
  {c7138cc2-589b-4e88-aa9b-6561b087ce28}, !- Handle
  DataCenter_basement_ZN_6,               !- Name
  {cbc1800d-3058-4bca-9be8-d37e6a76ff55}, !- Space Type Name
  ,                                       !- Default Construction Set Name
  ,                                       !- Default Schedule Set Name
  -0,                                     !- Direction of Relative North {deg}
  0,                                      !- X Origin {m}
  0,                                      !- Y Origin {m}
  -2.439,                                 !- Z Origin {m}
  {34fed859-ffd9-4b75-89d6-fc353a47f793}, !- Building Story Name
  {302c8dcd-82d2-44db-b2b0-c1a9834902ab}, !- Thermal Zone Name
  ,                                       !- Part of Total Floor Area
  ,                                       !- Design Specification Outdoor Air Object Name
  ,                                       !- Building Unit Name
  Autocalculate;                          !- Volume {m3}

OS:Surface,
  {31b80020-f257-4c20-a67a-014c08a7b555}, !- Handle
  Perimeter_mid_ZN_2_Wall_North,          !- Name
  Wall,                                   !- Surface Type
  ,                                       !- Construction Name
  {7e340c82-5b29-41c5-9ccd-9a28338e4ae1}, !- Space Name
  Surface,                                !- Outside Boundary Condition
  {7d128996-bb86-43c1-9e95-79c15bdeb256}, !- Outside Boundary Condition Object
  NoSun,                                  !- Sun Exposure
  NoWind,                                 !- Wind Exposure
  ,                                       !- View Factor to Ground
  ,                                       !- Number of Vertices
  4.5732, 48.7381, 2.744,                 !- X,Y,Z Vertex 1 {m}
  4.5732, 48.7381, 0,                     !- X,Y,Z Vertex 2 {m}
  0, 44.165, 0,                           !- X,Y,Z Vertex 3 {m}
  0, 44.165, 2.744;                       !- X,Y,Z Vertex 4 {m}

OS:Surface,
  {d0a59f37-e292-440f-8ae6-2a115b14f8a0}, !- Handle
  Core_bot_ZN_5_Wall_West,                !- Name
  Wall,                                   !- Surface Type
  ,                                       !- Construction Name
  {252d5491-4adf-40c7-b2c2-5f3c366963cc}, !- Space Name
  Surface,                                !- Outside Boundary Condition
  {1c745e8a-b021-4943-9de9-ab769a4e89fa}, !- Outside Boundary Condition Object
  NoSun,                                  !- Sun Exposure
  NoWind,                                 !- Wind Exposure
  0,                                      !- View Factor to Ground
  ,                                       !- Number of Vertices
  0, 39.5918, 2.744,                      !- X,Y,Z Vertex 1 {m}
  0, 39.5918, 0,                          !- X,Y,Z Vertex 2 {m}
  0, 0, 0,                                !- X,Y,Z Vertex 3 {m}
  0, 0, 2.744;                            !- X,Y,Z Vertex 4 {m}

OS:Surface,
  {b0fa1412-f530-4105-9167-603b3bfe9e52}, !- Handle
  Perimeter_bot_ZN_1_Floor-PPAutoCreateOther, !- Name
  RoofCeiling,                            !- Surface Type
  ,                                       !- Construction Name
  {5eccad29-dadd-43c0-a26c-31e00e7702be}, !- Space Name
  Surface,                                !- Outside Boundary Condition
  {3aea0e62-e36b-4705-b26b-131867a7071a}, !- Outside Boundary Condition Object
  NoSun,                                  !- Sun Exposure
  NoWind,                                 !- Wind Exposure
  0,                                      !- View Factor to Ground
  ,                                       !- Number of Vertices
  57.0278, 0, 2.439,                      !- X,Y,Z Vertex 1 {m}
  52.4546, 4.5732, 2.439,                 !- X,Y,Z Vertex 2 {m}
  0, 4.5732, 2.439,                       !- X,Y,Z Vertex 3 {m}
  0, 0, 2.439;                            !- X,Y,Z Vertex 4 {m}

OS:Surface,
  {6df794e9-3c6a-4697-83e2-2f096051ecf5}, !- Handle
  Basement_Floor,                         !- Name
  Floor,                                  !- Surface Type
  {b80f9d34-54cf-4c31-bc25-2f8afe0b8d6d}, !- Construction Name
  {5eccad29-dadd-43c0-a26c-31e00e7702be}, !- Space Name
  Foundation,                             !- Outside Boundary Condition
  {3c8dffe9-a0de-412f-b607-b28bddb45479}, !- Outside Boundary Condition Object
  NoSun,                                  !- Sun Exposure
  NoWind,                                 !- Wind Exposure
  0,                                      !- View Factor to Ground
  ,                                       !- Number of Vertices
  57.0278, 48.7381, 0,                    !- X,Y,Z Vertex 1 {m}
  57.0278, 0, 0,                          !- X,Y,Z Vertex 2 {m}
  0, 0, 0,                                !- X,Y,Z Vertex 3 {m}
  0, 48.7381, 0;                          !- X,Y,Z Vertex 4 {m}

OS:Surface,
  {385ea05a-ccee-44ea-89e0-24075e0c0427}, !- Handle
  DataCenter_basement_ZN_6-Perimeter_bot_ZN_1-PPAutoCreateOther, !- Name
  Floor,                                  !- Surface Type
  ,                                       !- Construction Name
  {2ff425f9-c1f4-46e4-a7b6-d29a1f6709fc}, !- Space Name
  Surface,                                !- Outside Boundary Condition
  {57a08851-5347-4ac4-ae3f-e27199583b27}, !- Outside Boundary Condition Object
  NoSun,                                  !- Sun Exposure
  NoWind,                                 !- Wind Exposure
  0,                                      !- View Factor to Ground
  ,                                       !- Number of Vertices
  16.0782, 4.5732, 0,                     !- X,Y,Z Vertex 1 {m}
  16.0782, 0, 0,                          !- X,Y,Z Vertex 2 {m}
  0, 0, 0,                                !- X,Y,Z Vertex 3 {m}
  4.5732, 4.5732, 0;                      !- X,Y,Z Vertex 4 {m}

OS:Surface,
  {35256534-7dcb-487c-8754-2698ab3fb091}, !- Handle
  Core_bot_ZN_5_Wall_North-PPAutoCreateOther, !- Name
  Wall,                                   !- Surface Type
  ,                                       !- Construction Name
  {d59c9de6-0b6a-4003-83b3-9abbb0fc11e6}, !- Space Name
  Surface,                                !- Outside Boundary Condition
  {4f514d6b-5f3a-4773-a294-0e317f993fc9}, !- Outside Boundary Condition Object
  NoSun,                                  !- Sun Exposure
  NoWind,                                 !- Wind Exposure
  ,                                       !- View Factor to Ground
  ,                                       !- Number of Vertices
  5.4876, 0, 2.744,                       !- X,Y,Z Vertex 1 {m}
  5.4876, 0, 0,                           !- X,Y,Z Vertex 2 {m}
  68.534, 0, 0,                           !- X,Y,Z Vertex 3 {m}
  68.534, 0, 2.744;                       !- X,Y,Z Vertex 4 {m}

OS:Surface,
  {e657e933-2e28-4a34-8851-c3e8ba75a417}, !- Handle
  DataCenter_mid_ZN_6_Wall_South,         !- Name
  Wall,                                   !- Surface Type
  ,                                       !- Construction Name
  {2c6ae4f5-d65e-4636-8802-7d13d7260722}, !- Space Name
  Surface,                                !- Outside Boundary Condition
  {602b1d84-44b4-43f4-800e-5a114c124ad1}, !- Outside Boundary Condition Object
  NoSun,                                  !- Sun Exposure
  NoWind,                                 !- Wind Exposure
  0,                                      !- View Factor to Ground
  ,                                       !- Number of Vertices
  0, 0, 2.744,                            !- X,Y,Z Vertex 1 {m}
  0, 0, 0,                                !- X,Y,Z Vertex 2 {m}
  0.9144, 0, 0,                           !- X,Y,Z Vertex 3 {m}
  0.9144, 0, 2.744;                       !- X,Y,Z Vertex 4 {m}

OS:Surface,
  {80e41be6-5e15-4045-aa9d-879ab2ec874d}, !- Handle
  Perimeter_bot_ZN_2_Wall_North,          !- Name
  Wall,                                   !- Surface Type
  ,                                       !- Construction Name
  {fa1660de-671b-44b7-b087-bcff3e03cad4}, !- Space Name
  Surface,                                !- Outside Boundary Condition
  {f4f193f2-ae84-4086-8993-59fec58adcc9}, !- Outside Boundary Condition Object
  NoSun,                                  !- Sun Exposure
  NoWind,                                 !- Wind Exposure
  ,                                       !- View Factor to Ground
  ,                                       !- Number of Vertices
  4.5732, 48.7381, 2.744,                 !- X,Y,Z Vertex 1 {m}
  4.5732, 48.7381, 0,                     !- X,Y,Z Vertex 2 {m}
  0, 44.165, 0,                           !- X,Y,Z Vertex 3 {m}
  0, 44.165, 2.744;                       !- X,Y,Z Vertex 4 {m}

OS:Connection,
  {2d88ca0e-656f-4869-98cb-4a906ba58d1b}, !- Handle
  ,                                       !- Source Object
  11,                                     !- Outlet Port
  ,                                       !- Target Object
  2;                                      !- Inlet Port

OS:Space,
  {fa1660de-671b-44b7-b087-bcff3e03cad4}, !- Handle
  Perimeter_bot_ZN_2,                     !- Name
  {cbc1800d-3058-4bca-9be8-d37e6a76ff55}, !- Space Type Name
  ,                                       !- Default Construction Set Name
  ,                                       !- Default Schedule Set Name
  -0,                                     !- Direction of Relative North {deg}
  68.534,                                 !- X Origin {m}
  0,                                      !- Y Origin {m}
  0,                                      !- Z Origin {m}
  {1bf14578-5317-4bb7-bb78-67bfc4cef2af}, !- Building Story Name
  {585f5093-8be8-4bef-9ba3-505dc9666f02}, !- Thermal Zone Name
  Yes,                                    !- Part of Total Floor Area
  ,                                       !- Design Specification Outdoor Air Object Name
  ,                                       !- Building Unit Name
  Autocalculate;                          !- Volume {m3}

OS:Surface,
  {17c5ab76-a5f2-4433-b414-301e76e8929c}, !- Handle
  Perimeter_top_ZN_2_Wall_North-PPAutoCreateOther, !- Name
  Wall,                                   !- Surface Type
  ,                                       !- Construction Name
  {bf3e28c0-5c36-4ba7-8f6b-40c5c095b5f0}, !- Space Name
  Surface,                                !- Outside Boundary Condition
  {14f33320-6d6a-4312-94a9-694259fd4aa8}, !- Outside Boundary Condition Object
  NoSun,                                  !- Sun Exposure
  NoWind,                                 !- Wind Exposure
  ,                                       !- View Factor to Ground
  ,                                       !- Number of Vertices
  68.534, 0, 2.744,                       !- X,Y,Z Vertex 1 {m}
  68.534, 0, 0,                           !- X,Y,Z Vertex 2 {m}
  73.1072, 4.5731, 0,                     !- X,Y,Z Vertex 3 {m}
  73.1072, 4.5731, 2.744;                 !- X,Y,Z Vertex 4 {m}

OS:Surface,
  {fc24aad0-a31b-4d7e-bbaf-fc0154c26282}, !- Handle
  Perimeter_bot_ZN_4_Ceiling,             !- Name
  RoofCeiling,                            !- Surface Type
  ,                                       !- Construction Name
  {e00bf7aa-0083-44aa-b7cd-bd6b6b225b7a}, !- Space Name
  Surface,                                !- Outside Boundary Condition
  {15c00337-961a-40e1-8e4f-b27df8fa3a95}, !- Outside Boundary Condition Object
  NoSun,                                  !- Sun Exposure
  NoWind,                                 !- Wind Exposure
  ,                                       !- View Factor to Ground
  ,                                       !- Number of Vertices
  0, 0, 2.744,                            !- X,Y,Z Vertex 1 {m}
  4.5732, 4.5732, 2.744,                  !- X,Y,Z Vertex 2 {m}
  4.5732, 44.165, 2.744,                  !- X,Y,Z Vertex 3 {m}
  0, 48.7381, 2.744;                      !- X,Y,Z Vertex 4 {m}

OS:Connection,
  {db2aad46-61bf-4d29-b6f3-49e6d1a68cc1}, !- Handle
  ,                                       !- Source Object
  11,                                     !- Outlet Port
  ,                                       !- Target Object
  2;                                      !- Inlet Port

OS:Space,
  {e00bf7aa-0083-44aa-b7cd-bd6b6b225b7a}, !- Handle
  Perimeter_bot_ZN_4,                     !- Name
  {cbc1800d-3058-4bca-9be8-d37e6a76ff55}, !- Space Type Name
  ,                                       !- Default Construction Set Name
  ,                                       !- Default Schedule Set Name
  -0,                                     !- Direction of Relative North {deg}
  0,                                      !- X Origin {m}
  0,                                      !- Y Origin {m}
  0,                                      !- Z Origin {m}
  {1bf14578-5317-4bb7-bb78-67bfc4cef2af}, !- Building Story Name
  {56219186-f695-4e0e-b105-054c90451ea4}, !- Thermal Zone Name
  Yes,                                    !- Part of Total Floor Area
  ,                                       !- Design Specification Outdoor Air Object Name
  ,                                       !- Building Unit Name
  Autocalculate;                          !- Volume {m3}

OS:Surface,
  {15c00337-961a-40e1-8e4f-b27df8fa3a95}, !- Handle
  Perimeter_bot_ZN_4_Ceiling Reversed,    !- Name
  Floor,                                  !- Surface Type
  ,                                       !- Construction Name
  {b30407eb-ffd6-40ad-a549-5d1cfee1d345}, !- Space Name
  Surface,                                !- Outside Boundary Condition
  {fc24aad0-a31b-4d7e-bbaf-fc0154c26282}, !- Outside Boundary Condition Object
  NoSun,                                  !- Sun Exposure
  NoWind,                                 !- Wind Exposure
  ,                                       !- View Factor to Ground
  ,                                       !- Number of Vertices
  0, 48.7381, 0,                          !- X,Y,Z Vertex 1 {m}
  4.5732, 44.165, 0,                      !- X,Y,Z Vertex 2 {m}
  4.5732, 4.5732, 0,                      !- X,Y,Z Vertex 3 {m}
  0, 0, 0;                                !- X,Y,Z Vertex 4 {m}

OS:Surface,
  {07bf6fef-804b-41f5-be4e-454ef34836c2}, !- Handle
  Perimeter_mid_ZN_4_Wall_South-PPAutoCreateOther, !- Name
  Wall,                                   !- Surface Type
  ,                                       !- Construction Name
  {fbcda114-4a6f-4d17-ba38-7d71c7b8bbff}, !- Space Name
  Surface,                                !- Outside Boundary Condition
  {01cd8577-649b-4433-97f2-77580c653d33}, !- Outside Boundary Condition Object
  NoSun,                                  !- Sun Exposure
  NoWind,                                 !- Wind Exposure
  ,                                       !- View Factor to Ground
  ,                                       !- Number of Vertices
  4.5732, 4.5732, 2.744,                  !- X,Y,Z Vertex 1 {m}
  4.5732, 4.5732, 0,                      !- X,Y,Z Vertex 2 {m}
  0, 0, 0,                                !- X,Y,Z Vertex 3 {m}
  0, 0, 2.744;                            !- X,Y,Z Vertex 4 {m}

OS:Surface,
  {bc756393-0073-4502-8f6d-e63a633caa70}, !- Handle
  Perimeter_bot_ZN_4_Wall_South,          !- Name
  Wall,                                   !- Surface Type
  ,                                       !- Construction Name
  {e00bf7aa-0083-44aa-b7cd-bd6b6b225b7a}, !- Space Name
  Surface,                                !- Outside Boundary Condition
  {4ac6ea44-6fad-4d22-9242-726039b5b7bb}, !- Outside Boundary Condition Object
  NoSun,                                  !- Sun Exposure
  NoWind,                                 !- Wind Exposure
  ,                                       !- View Factor to Ground
  ,                                       !- Number of Vertices
  0, 0, 2.744,                            !- X,Y,Z Vertex 1 {m}
  0, 0, 0,                                !- X,Y,Z Vertex 2 {m}
  4.5732, 4.5732, 0,                      !- X,Y,Z Vertex 3 {m}
  4.5732, 4.5732, 2.744;                  !- X,Y,Z Vertex 4 {m}

OS:Surface,
  {30c6ef8c-d12f-4a7f-bd36-3ca441910b75}, !- Handle
  TopFloor_Plenum_Wall_West,              !- Name
  Wall,                                   !- Surface Type
  ,                                       !- Construction Name
  {d90bdd43-239b-4cf7-ae27-6c4e6b492a91}, !- Space Name
  Outdoors,                               !- Outside Boundary Condition
  ,                                       !- Outside Boundary Condition Object
  SunExposed,                             !- Sun Exposure
  WindExposed,                            !- Wind Exposure
  ,                                       !- View Factor to Ground
  ,                                       !- Number of Vertices
  0, 48.7381, 1.2192,                     !- X,Y,Z Vertex 1 {m}
  0, 48.7381, 0,                          !- X,Y,Z Vertex 2 {m}
  0, 0, 0,                                !- X,Y,Z Vertex 3 {m}
  0, 0, 1.2192;                           !- X,Y,Z Vertex 4 {m}

OS:Surface,
  {dfc35d03-b0cb-4f19-a1bd-09af3cd6142f}, !- Handle
  DataCenter_basement_ZN_6_Floor,         !- Name
  Floor,                                  !- Surface Type
  {b80f9d34-54cf-4c31-bc25-2f8afe0b8d6d}, !- Construction Name
  {c7138cc2-589b-4e88-aa9b-6561b087ce28}, !- Space Name
  Foundation,                             !- Outside Boundary Condition
  {3c8dffe9-a0de-412f-b607-b28bddb45479}, !- Outside Boundary Condition Object
  NoSun,                                  !- Sun Exposure
  NoWind,                                 !- Wind Exposure
  0,                                      !- View Factor to Ground
  ,                                       !- Number of Vertices
  16.0794, 48.7381, 0,                    !- X,Y,Z Vertex 1 {m}
  16.0794, 0, 0,                          !- X,Y,Z Vertex 2 {m}
  0, 0, 0,                                !- X,Y,Z Vertex 3 {m}
  0, 48.7381, 0;                          !- X,Y,Z Vertex 4 {m}

OS:Surface,
  {1672b55a-25bd-4581-ad38-f3dee5d19303}, !- Handle
  GroundFloor_Plenum_Ceiling,             !- Name
  RoofCeiling,                            !- Surface Type
  {f43e72a5-b9e5-48f1-b66a-aa00ffbaf92c}, !- Construction Name
  {b30407eb-ffd6-40ad-a549-5d1cfee1d345}, !- Space Name
  Adiabatic,                              !- Outside Boundary Condition
  ,                                       !- Outside Boundary Condition Object
  NoSun,                                  !- Sun Exposure
  NoWind,                                 !- Wind Exposure
  ,                                       !- View Factor to Ground
  ,                                       !- Number of Vertices
  73.1072, 0, 1.2192,                     !- X,Y,Z Vertex 1 {m}
  73.1072, 48.7381, 1.2192,               !- X,Y,Z Vertex 2 {m}
  0, 48.7381, 1.2192,                     !- X,Y,Z Vertex 3 {m}
  0, 0, 1.2192;                           !- X,Y,Z Vertex 4 {m}

OS:Surface,
  {58bb2539-a045-44d3-bfe6-0813d89f521a}, !- Handle
  Perimeter_top_ZN_2_Wall_East,           !- Name
  Wall,                                   !- Surface Type
  ,                                       !- Construction Name
  {fef7f608-2812-417a-a2ec-fcc3d22db84e}, !- Space Name
  Outdoors,                               !- Outside Boundary Condition
  ,                                       !- Outside Boundary Condition Object
  SunExposed,                             !- Sun Exposure
  WindExposed,                            !- Wind Exposure
  ,                                       !- View Factor to Ground
  ,                                       !- Number of Vertices
  4.5732, 0, 2.744,                       !- X,Y,Z Vertex 1 {m}
  4.5732, 0, 0,                           !- X,Y,Z Vertex 2 {m}
  4.5732, 48.7381, 0,                     !- X,Y,Z Vertex 3 {m}
  4.5732, 48.7381, 2.744;                 !- X,Y,Z Vertex 4 {m}

OS:Surface,
  {602b1d84-44b4-43f4-800e-5a114c124ad1}, !- Handle
  DataCenter_mid_ZN_6_Wall_South-PPAutoCreateOther, !- Name
  Wall,                                   !- Surface Type
  ,                                       !- Construction Name
  {fbcda114-4a6f-4d17-ba38-7d71c7b8bbff}, !- Space Name
  Surface,                                !- Outside Boundary Condition
  {e657e933-2e28-4a34-8851-c3e8ba75a417}, !- Outside Boundary Condition Object
  NoSun,                                  !- Sun Exposure
  NoWind,                                 !- Wind Exposure
  0,                                      !- View Factor to Ground
  ,                                       !- Number of Vertices
  5.4876, 4.5732, 2.744,                  !- X,Y,Z Vertex 1 {m}
  5.4876, 4.5732, 0,                      !- X,Y,Z Vertex 2 {m}
  4.5732, 4.5732, 0,                      !- X,Y,Z Vertex 3 {m}
  4.5732, 4.5732, 2.744;                  !- X,Y,Z Vertex 4 {m}

OS:Surface,
  {e76036e0-22b6-40c7-bea7-47386fd2f9d6}, !- Handle
  Core_bot_ZN_5_Wall_East,                !- Name
  Wall,                                   !- Surface Type
  ,                                       !- Construction Name
  {252d5491-4adf-40c7-b2c2-5f3c366963cc}, !- Space Name
  Surface,                                !- Outside Boundary Condition
  {3a01545e-79a9-472e-a218-6d489b8687fa}, !- Outside Boundary Condition Object
  NoSun,                                  !- Sun Exposure
  NoWind,                                 !- Wind Exposure
  ,                                       !- View Factor to Ground
  ,                                       !- Number of Vertices
  63.0464, 0, 2.744,                      !- X,Y,Z Vertex 1 {m}
  63.0464, 0, 0,                          !- X,Y,Z Vertex 2 {m}
  63.0464, 39.5918, 0,                    !- X,Y,Z Vertex 3 {m}
  63.0464, 39.5918, 2.744;                !- X,Y,Z Vertex 4 {m}

OS:Surface,
  {850dcceb-5334-45f2-850b-04b1d956bc1d}, !- Handle
  Perimeter_mid_ZN_4_Wall_West,           !- Name
  Wall,                                   !- Surface Type
  ,                                       !- Construction Name
  {fa6dd353-dcdd-40da-857d-4470740aa0d0}, !- Space Name
  Outdoors,                               !- Outside Boundary Condition
  ,                                       !- Outside Boundary Condition Object
  SunExposed,                             !- Sun Exposure
  WindExposed,                            !- Wind Exposure
[...]

OS:ModelObjectList,
  {f059e378-55d0-41ec-80a6-307324481da3}, !- Handle
  Availability Manager Night Cycle 5 Control Zone List; !- Name

OS:ModelObjectList,
  {317addc7-d2d4-4c25-95a7-66b1866af3e7}, !- Handle
  Availability Manager Night Cycle 5 Cooling Control Zone List; !- Name

OS:ModelObjectList,
  {afa4e5bd-f58f-401a-b8ba-94e1754d84e0}, !- Handle
  Availability Manager Night Cycle 5 Heating Control Zone List; !- Name

OS:ModelObjectList,
  {17adcfa7-f56d-4657-b755-0805d465ed89}, !- Handle
  Availability Manager Night Cycle 5 Heating Zone Fans Only Zone List; !- Name

OS:Schedule:Ruleset,
  {2babc2cb-4d52-492e-9fa7-a33677bf7e79}, !- Handle
  sys_6|mixed|shr>none|sh>c-e|sc>c-chw|ssf>vv|zh>b-hw|zc>none|srf>vv| 3 Occ Sch, !- Name
  {1c3b1f0a-65aa-449c-9a60-b5266aa6588e}, !- Schedule Type Limits Name
  {437354da-468c-4edc-bbd6-39e66998b3ed}, !- Default Day Schedule Name
  {60cffae4-4ba5-4b01-a877-bcaaef6a2a3e}, !- Summer Design Day Schedule Name
  {13b7cfde-0e94-4e65-b437-9baa69cea836}; !- Winter Design Day Schedule Name

OS:Schedule:Day,
  {437354da-468c-4edc-bbd6-39e66998b3ed}, !- Handle
  sys_6|mixed|shr>none|sh>c-e|sc>c-chw|ssf>vv|zh>b-hw|zc>none|srf>vv| 3 Occ Sch Default, !- Name
  {1c3b1f0a-65aa-449c-9a60-b5266aa6588e}, !- Schedule Type Limits Name
  ,                                       !- Interpolate to Timestep
  8,                                      !- Hour 1
  0,                                      !- Minute 1
  0,                                      !- Value Until Time 1
  19,                                     !- Hour 2
  0,                                      !- Minute 2
  1,                                      !- Value Until Time 2
  24,                                     !- Hour 3
  0,                                      !- Minute 3
  0;                                      !- Value Until Time 3

OS:AdditionalProperties,
  {1d764813-0615-431f-a0c7-257c57f5ffe3}, !- Handle
  {2babc2cb-4d52-492e-9fa7-a33677bf7e79}, !- Object Name
  max_occ_in_spaces,                      !- Feature Name 1
  Double,                                 !- Feature Data Type 1
  178.34123633723931,                     !- Feature Value 1
  number_of_spaces_included,              !- Feature Name 2
  Integer,                                !- Feature Data Type 2
  6,                                      !- Feature Value 2
  date_parent_object_last_edited,         !- Feature Name 3
  String,                                 !- Feature Data Type 3
  2025-10-15 18:38:38 UTC,                !- Feature Value 3
  date_parent_object_created,             !- Feature Name 4
  String,                                 !- Feature Data Type 4
  2025-10-15 18:38:38 UTC;                !- Feature Value 4

OS:Schedule:Day,
  {13b7cfde-0e94-4e65-b437-9baa69cea836}, !- Handle
  sys_6|mixed|shr>none|sh>c-e|sc>c-chw|ssf>vv|zh>b-hw|zc>none|srf>vv| 3 Occ Sch Winter Design Day, !- Name
  {1c3b1f0a-65aa-449c-9a60-b5266aa6588e}, !- Schedule Type Limits Name
  ,                                       !- Interpolate to Timestep
  24,                                     !- Hour 1
  0,                                      !- Minute 1
  1;                                      !- Value Until Time 1

OS:Schedule:Day,
  {60cffae4-4ba5-4b01-a877-bcaaef6a2a3e}, !- Handle
  sys_6|mixed|shr>none|sh>c-e|sc>c-chw|ssf>vv|zh>b-hw|zc>none|srf>vv| 3 Occ Sch Summer Design Day, !- Name
  {1c3b1f0a-65aa-449c-9a60-b5266aa6588e}, !- Schedule Type Limits Name
  ,                                       !- Interpolate to Timestep
  24,                                     !- Hour 1
  0,                                      !- Minute 1
  1;                                      !- Value Until Time 1

OS:Schedule:Rule,
  {5aa77c34-9ad8-4dc1-9621-c837d43c46ee}, !- Handle
  Schedule Rule 28,                       !- Name
  {2babc2cb-4d52-492e-9fa7-a33677bf7e79}, !- Schedule Ruleset Name
  1,                                      !- Rule Order
  {37c7bc19-81bd-4d98-b496-dfdbc115f007}, !- Day Schedule Name
  ,                                       !- Apply Sunday
  ,                                       !- Apply Monday
  ,                                       !- Apply Tuesday
  ,                                       !- Apply Wednesday
  ,                                       !- Apply Thursday
  ,                                       !- Apply Friday
  Yes,                                    !- Apply Saturday
  DateRange,                              !- Date Specification Type
  1,                                      !- Start Month
  7,                                      !- Start Day
  12,                                     !- End Month
  30;                                     !- End Day

OS:Schedule:Day,
  {37c7bc19-81bd-4d98-b496-dfdbc115f007}, !- Handle
  Schedule Day 15,                        !- Name
  {1c3b1f0a-65aa-449c-9a60-b5266aa6588e}, !- Schedule Type Limits Name
  ,                                       !- Interpolate to Timestep
  24,                                     !- Hour 1
  0,                                      !- Minute 1
  0;                                      !- Value Until Time 1

OS:Schedule:Rule,
  {e51d8531-dd9d-4647-8f21-766c42d01654}, !- Handle
  Schedule Rule 29,                       !- Name
  {2babc2cb-4d52-492e-9fa7-a33677bf7e79}, !- Schedule Ruleset Name
  0,                                      !- Rule Order
  {7be59b2e-e5b7-4fb2-8768-5f102cf95d1b}, !- Day Schedule Name
  Yes,                                    !- Apply Sunday
  ,                                       !- Apply Monday
  ,                                       !- Apply Tuesday
  ,                                       !- Apply Wednesday
  ,                                       !- Apply Thursday
  ,                                       !- Apply Friday
  ,                                       !- Apply Saturday
  DateRange,                              !- Date Specification Type
  1,                                      !- Start Month
  1,                                      !- Start Day
  12,                                     !- End Month
  31;                                     !- End Day

OS:Schedule:Day,
  {7be59b2e-e5b7-4fb2-8768-5f102cf95d1b}, !- Handle
  Schedule Day 16,                        !- Name
  {1c3b1f0a-65aa-449c-9a60-b5266aa6588e}, !- Schedule Type Limits Name
  ,                                       !- Interpolate to Timestep
  24,                                     !- Hour 1
  0,                                      !- Minute 1
  0;                                      !- Value Until Time 1

OS:EnergyManagementSystem:Sensor,
  {f3272e57-27ee-400b-99af-a8b1271a107c}, !- Handle
  OAT_2,                                  !- Name
  Environment,                            !- Output Variable or Output Meter Index Key Name
  Site Outdoor Air Drybulb Temperature;   !- Output Variable or Output Meter Name

OS:EnergyManagementSystem:Actuator,
  {580fa6d1-22f5-4413-bb93-4425aa57018d}, !- Handle
  ems_sys_6_mixed_shr_none_sh_c_e_sc_c_chw_ssf_vv_zh_b_hw_zc_none_srf_vv__3_HtgSch0, !- Name
  {8b65acd9-b62e-4e2e-a270-259d9cf9c560}, !- Actuated Component Name
  Schedule:Year,                          !- Actuated Component Type
  Schedule Value,                         !- Actuated Component Control Type
  ;                                       !- Zone or Space Name

OS:EnergyManagementSystem:Actuator,
  {438a01da-c479-4776-ac7d-9dd7c3dbf6ba}, !- Handle
  ems_sys_6_mixed_shr_none_sh_c_e_sc_c_chw_ssf_vv_zh_b_hw_zc_none_srf_vv__3_ClgSch0, !- Name
  {ea5edd0d-cbbe-4642-afc9-f0f16351633e}, !- Actuated Component Name
  Schedule:Year,                          !- Actuated Component Type
  Schedule Value,                         !- Actuated Component Control Type
  ;                                       !- Zone or Space Name

OS:EnergyManagementSystem:Program,
  {ac1b2a82-5e1c-4b07-b77b-aa5315852d6b}, !- Handle
  ems_sys_6_mixed_shr_none_sh_c_e_sc_c_chw_ssf_vv_zh_b_hw_zc_none_srf_vv__3_OptimumStartProg0, !- Name
  IF DaylightSavings==0 && DayOfWeek>1 && Hour==5 && {f3272e57-27ee-400b-99af-a8b1271a107c}<23.9 && {f3272e57-27ee-400b-99af-a8b1271a107c}>1.7, !- Program Line 1
  SET {438a01da-c479-4776-ac7d-9dd7c3dbf6ba} = 29.4, !- Program Line 2
  SET {580fa6d1-22f5-4413-bb93-4425aa57018d} = 15.6, !- Program Line 3
  ELSEIF DaylightSavings==0 && DayOfWeek==1 && Hour==7 && {f3272e57-27ee-400b-99af-a8b1271a107c}<23.9 && {f3272e57-27ee-400b-99af-a8b1271a107c}>1.7, !- Program Line 4
  SET {438a01da-c479-4776-ac7d-9dd7c3dbf6ba} = 29.4, !- Program Line 5
  SET {580fa6d1-22f5-4413-bb93-4425aa57018d} = 15.6, !- Program Line 6
  ELSEIF DaylightSavings==1 && DayOfWeek>1 && Hour==4 && {f3272e57-27ee-400b-99af-a8b1271a107c}<23.9 && {f3272e57-27ee-400b-99af-a8b1271a107c}>1.7, !- Program Line 7
  SET {438a01da-c479-4776-ac7d-9dd7c3dbf6ba} = 29.4, !- Program Line 8
  SET {580fa6d1-22f5-4413-bb93-4425aa57018d} = 15.6, !- Program Line 9
  ELSEIF DaylightSavings==1 && DayOfWeek==1 && Hour==6 && {f3272e57-27ee-400b-99af-a8b1271a107c}<23.9 && {f3272e57-27ee-400b-99af-a8b1271a107c}>1.7, !- Program Line 10
  SET {438a01da-c479-4776-ac7d-9dd7c3dbf6ba} = 29.4, !- Program Line 11
  SET {580fa6d1-22f5-4413-bb93-4425aa57018d} = 15.6, !- Program Line 12
  ELSE,                                   !- Program Line 13
  SET {438a01da-c479-4776-ac7d-9dd7c3dbf6ba} = NULL, !- Program Line 14
  SET {580fa6d1-22f5-4413-bb93-4425aa57018d} = NULL, !- Program Line 15
  ENDIF;                                  !- Program Line 16

OS:EnergyManagementSystem:ProgramCallingManager,
  {93e031d1-6fcf-4a36-b0ed-8203223afdfb}, !- Handle
  ems_sys_6_mixed_shr_none_sh_c_e_sc_c_chw_ssf_vv_zh_b_hw_zc_none_srf_vv__3_OptimumStartCallingManager0, !- Name
  BeginTimestepBeforePredictor,           !- EnergyPlus Model Calling Point
  {ac1b2a82-5e1c-4b07-b77b-aa5315852d6b}; !- Program Name 1

OS:Curve:Biquadratic,
  {14ebafad-b1b0-4be9-867c-90e4399469e1}, !- Handle
  DXCOOL-NECB2011-REF-CAPFT,              !- Name
  0.867905,                               !- Coefficient1 Constant
  0.0142459,                              !- Coefficient2 x
  0.00055436,                             !- Coefficient3 x**2
  -0.0075575,                             !- Coefficient4 y
  3.3e-05,                                !- Coefficient5 y**2
  -0.0001918,                             !- Coefficient6 x*y
  13,                                     !- Minimum Value of x
  24,                                     !- Maximum Value of x
  24,                                     !- Minimum Value of y
  46;                                     !- Maximum Value of y

OS:Curve:Quadratic,
  {96c34806-e57c-4744-9cd8-1af9100ecffb}, !- Handle
  DXCOOL-NECB2011-REF-CAPFFLOW,           !- Name
  0.8,                                    !- Coefficient1 Constant
  0.2,                                    !- Coefficient2 x
  0,                                      !- Coefficient3 x**2
  0.5,                                    !- Minimum Value of x
  1.5;                                    !- Maximum Value of x

OS:Curve:Biquadratic,
  {254d1d8b-49a9-425c-818c-fc3bf2e134b2}, !- Handle
  DXCOOL-NECB2011-REF-COOLEIRFT,          !- Name
  0.1141714,                              !- Coefficient1 Constant
  0.02818224,                             !- Coefficient2 x
  -0.0004199,                             !- Coefficient3 x**2
  0.02141082,                             !- Coefficient4 y
  0.000161028,                            !- Coefficient5 y**2
  -0.000679104,                           !- Coefficient6 x*y
  13,                                     !- Minimum Value of x
  24,                                     !- Maximum Value of x
  24,                                     !- Minimum Value of y
  46;                                     !- Maximum Value of y

OS:Curve:Quadratic,
  {95cacd89-a38a-4337-a0cf-062eafdc5ef3}, !- Handle
  DXCOOL-NECB2011-REF-COOLEIRFFLOW,       !- Name
  1.1552,                                 !- Coefficient1 Constant
  -0.1808,                                !- Coefficient2 x
  0.0256,                                 !- Coefficient3 x**2
  0.5,                                    !- Minimum Value of x
  1.5;                                    !- Maximum Value of x

OS:Curve:Cubic,
  {4cc580c8-6fea-42fa-b24c-d4a9f4aca7ac}, !- Handle
  DXCOOL-NECB2011-REF-COOLPLFFPLR,        !- Name
  0.0277,                                 !- Coefficient1 Constant
  4.9151,                                 !- Coefficient2 x
  -8.184,                                 !- Coefficient3 x**2
  4.2702,                                 !- Coefficient4 x**3
  0.7,                                    !- Minimum Value of x
  1;                                      !- Maximum Value of x

OS:AdditionalProperties,
  {26a79394-65aa-447f-8718-269fd9f0c68e}, !- Handle
  {799f02f6-e9ec-4e7e-b0af-ed3fc8a78915}; !- Object Name

OS:Curve:Biquadratic,
  {62841c83-9d3a-4771-970f-6e45ae755f80}, !- Handle
  WaterCooled_Centrifugal_CAPFT_NECB2011, !- Name
  0.707908,                               !- Coefficient1 Constant
  -0.00200657,                            !- Coefficient2 x
  -0.00259605,                            !- Coefficient3 x**2
  0.0300588,                              !- Coefficient4 y
  -0.00105643,                            !- Coefficient5 y**2
  0.0020457,                              !- Coefficient6 x*y
  5,                                      !- Minimum Value of x
  10,                                     !- Maximum Value of x
  24,                                     !- Minimum Value of y
  35;                                     !- Maximum Value of y

OS:Curve:Biquadratic,
  {6325520f-84f0-4c92-b666-4af878446c04}, !- Handle
  WaterCooled_Centrifugal_EIRFT_NECB2011, !- Name
  0.560523,                               !- Coefficient1 Constant
  -0.0137816,                             !- Coefficient2 x
  6.56424e-05,                            !- Coefficient3 x**2
  0.0132194,                              !- Coefficient4 y
  0.000268596,                            !- Coefficient5 y**2
  -0.000501131,                           !- Coefficient6 x*y
  5,                                      !- Minimum Value of x
  10,                                     !- Maximum Value of x
  24,                                     !- Minimum Value of y
  35;                                     !- Maximum Value of y

OS:Curve:Quadratic,
  {366601f6-5c19-4787-a152-acf222c8f3e7}, !- Handle
  WaterCooled_Centrifugal_EIRFPLR_NECB2011, !- Name
  0.171493,                               !- Coefficient1 Constant
  0.588202,                               !- Coefficient2 x
  0.237373,                               !- Coefficient3 x**2
  0,                                      !- Minimum Value of x
  1;                                      !- Maximum Value of x

OS:AdditionalProperties,
  {84a330d2-f49b-48e0-b38a-2c71f580dc73}, !- Handle
  {b21779c1-b9c1-4b01-a975-f6a6fe7b55aa}; !- Object Name

OS:Curve:Biquadratic,
  {94e80761-e576-42e1-a041-430bf17e0b83}, !- Handle
  WaterCooled_Scroll_CAPFT_NECB2011,      !- Name
  0.94418,                                !- Coefficient1 Constant
  0.0337102,                              !- Coefficient2 x
  9.75564e-05,                            !- Coefficient3 x**2
  -0.00322114,                            !- Coefficient4 y
  -4.91832e-05,                           !- Coefficient5 y**2
  -0.000177584,                           !- Coefficient6 x*y
  5,                                      !- Minimum Value of x
  10,                                     !- Maximum Value of x
  24,                                     !- Minimum Value of y
  35;                                     !- Maximum Value of y

OS:Curve:Biquadratic,
  {f22d564d-9ae9-404d-abc2-3d035fa6be8c}, !- Handle
  WaterCooled_Scroll_EIRFT_NECB2011,      !- Name
  0.727393,                               !- Coefficient1 Constant
  -0.0118922,                             !- Coefficient2 x
  0.000541177,                            !- Coefficient3 x**2
  0.00187934,                             !- Coefficient4 y
  0.000473461,                            !- Coefficient5 y**2
  -0.000711472,                           !- Coefficient6 x*y
  5,                                      !- Minimum Value of x
  10,                                     !- Maximum Value of x
  24,                                     !- Minimum Value of y
  35;                                     !- Maximum Value of y

OS:Curve:Quadratic,
  {924e2625-fa2a-4176-acfe-6c092021d334}, !- Handle
  WaterCooled_Scroll_EIRFPLR_NECB2011,    !- Name
  0.04412,                                !- Coefficient1 Constant
  0.640367,                               !- Coefficient2 x
  0.319555,                               !- Coefficient3 x**2
  0,                                      !- Minimum Value of x
  1;                                      !- Maximum Value of x

OS:Curve:Cubic,
  {40c59500-7c0f-4d58-ad3a-3f989e5b0fa0}, !- Handle
  BOILER-EFFFPLR-NECB2011,                !- Name
  0.3831,                                 !- Coefficient1 Constant
  2.0567,                                 !- Coefficient2 x
  -2.6469,                                !- Coefficient3 x**2
  1.2148,                                 !- Coefficient4 x**3
  0,                                      !- Minimum Value of x
  1;                                      !- Maximum Value of x

OS:Curve:Cubic,
  {80675e7d-ddd6-45a2-b45a-b3f53cc35248}, !- Handle
  SWH-EFFFPLR-NECB2011,                   !- Name
  0.7576,                                 !- Coefficient1 Constant
  1.0071,                                 !- Coefficient2 x
  -1.4443,                                !- Coefficient3 x**2
  0.6844,                                 !- Coefficient4 x**3
  0,                                      !- Minimum Value of x
  1;                                      !- Maximum Value of x

OS:Curve:Biquadratic,
  {07b8a3cb-4047-48ca-a57b-ec417f28abeb}, !- Handle
  ElectricEIRChiller York YT 2233kW/9.54COP/VSD CAPFT_2, !- Name
  0.7585741,                              !- Coefficient1 Constant
  -0.05127829,                            !- Coefficient2 x
  0.005848602,                            !- Coefficient3 x**2
  0.04235544,                             !- Coefficient4 y
  -0.001606561,                           !- Coefficient5 y**2
  0.0009364594,                           !- Coefficient6 x*y
  5.56,                                   !- Minimum Value of x
  8.89,                                   !- Maximum Value of x
  12.78,                                  !- Minimum Value of y
  29.44;                                  !- Maximum Value of y

OS:Curve:Biquadratic,
  {88317668-365e-47ba-8f99-0ec21cd848f7}, !- Handle
  ElectricEIRChiller York YT 2233kW/9.54COP/VSD EIRFT_2, !- Name
  0.7563409,                              !- Coefficient1 Constant
  -0.01966623,                            !- Coefficient2 x
  -0.0003927494,                          !- Coefficient3 x**2
  0.02973607,                             !- Coefficient4 y
  0.000129923,                            !- Coefficient5 y**2
  -0.0004325357,                          !- Coefficient6 x*y
  5.56,                                   !- Minimum Value of x
  8.89,                                   !- Maximum Value of x
  12.78,                                  !- Minimum Value of y
  29.44;                                  !- Maximum Value of y

OS:Curve:Quadratic,
  {939e66ed-6411-4649-8720-f76a0456678e}, !- Handle
  ElectricEIRChiller York YT 2233kW/9.54COP/VSD EIRFPLR_2, !- Name
  0.06917141,                             !- Coefficient1 Constant
  0.1743339,                              !- Coefficient2 x
  0.7524059,                              !- Coefficient3 x**2
  0.1,                                    !- Minimum Value of x
  1.04;                                   !- Maximum Value of x

