
OS:Version,
  {c1a21f21-0ec7-4105-97b8-de495dfd0dc9}, !- Handle
  3.9.0;                                  !- Version Identifier

OS:ScheduleTypeLimits,
  {b034dcd5-0f46-495f-b761-ebf54c9c243a}, !- Handle
  Always On Discrete Limits,              !- Name
  0,                                      !- Lower Limit Value
  1,                                      !- Upper Limit Value
  Discrete,                               !- Numeric Type
  Availability;                           !- Unit Type

OS:Timestep,
  {b0fa043b-3e91-4705-b798-a26bbea47620}, !- Handle
  6;                                      !- Number of Timesteps per Hour

OS:YearDescription,
  {2759562d-6e36-40de-aa86-5c2198a9d34c}, !- Handle
  ,                                       !- Calendar Year
  Sunday;                                 !- Day of Week for Start Day

OS:Connection,
  {5bae42aa-910b-413c-9bf1-37c522919800}, !- Handle
  ,                                       !- Source Object
  11,                                     !- Outlet Port
  ,                                       !- Target Object
  2;                                      !- Inlet Port

OS:Space,
  {c9532ad7-da0a-45f9-96ed-ea62ab17db64}, !- Handle
  Core_mid,                               !- Name
  {cbc1800d-3058-4bca-9be8-d37e6a76ff55}, !- Space Type Name
  ,                                       !- Default Construction Set Name
  ,                                       !- Default Schedule Set Name
  -0,                                     !- Direction of Relative North {deg}
  5.4876,                                 !- X Origin {m}
  4.5732,                                 !- Y Origin {m}
  19.816,                                 !- Z Origin {m}
  {90e8f18c-4e90-4136-9df3-52f333e3fb0e}, !- Building Story Name
  {e3fd5817-0fbf-460c-a2bc-685dd4aa78c4}, !- Thermal Zone Name
  Yes,                                    !- Part of Total Floor Area
  ,                                       !- Design Specification Outdoor Air Object Name
  ,                                       !- Building Unit Name
  Autocalculate;                          !- Volume {m3}

OS:Surface,
  {503cbf06-b696-47b8-902a-5f4f090ce948}, !- Handle
  DataCenter_top_ZN_6_Floor,              !- Name
  Floor,                                  !- Surface Type
  {698186c8-2099-4c48-be16-77de4cd8bec2}, !- Construction Name
  {ad63a923-b138-4343-b031-0f686a9aa91f}, !- Space Name
  Adiabatic,                              !- Outside Boundary Condition
  ,                                       !- Outside Boundary Condition Object
  NoSun,                                  !- Sun Exposure
  NoWind,                                 !- Wind Exposure
  0,                                      !- View Factor to Ground
  ,                                       !- Number of Vertices
  0.9144, 39.5918, 0,                     !- X,Y,Z Vertex 1 {m}
  0.9144, 0, 0,                           !- X,Y,Z Vertex 2 {m}
  0, 0, 0,                                !- X,Y,Z Vertex 3 {m}
  0, 39.5918, 0;                          !- X,Y,Z Vertex 4 {m}

OS:Connection,
  {32a16ddd-3d4f-4c9b-b883-8d736da632a9}, !- Handle
  ,                                       !- Source Object
  11,                                     !- Outlet Port
  ,                                       !- Target Object
  2;                                      !- Inlet Port

OS:Space,
  {ad63a923-b138-4343-b031-0f686a9aa91f}, !- Handle
  DataCenter_top_ZN_6,                    !- Name
  {cbc1800d-3058-4bca-9be8-d37e6a76ff55}, !- Space Type Name
  ,                                       !- Default Construction Set Name
  ,                                       !- Default Schedule Set Name
  -0,                                     !- Direction of Relative North {deg}
  4.5732,                                 !- X Origin {m}
  4.5732,                                 !- Y Origin {m}
  43.5952,                                !- Z Origin {m}
  {f4d26ab6-6069-4f95-a4bb-2505ee54b65c}, !- Building Story Name
  {7f7fbe96-cada-4724-9d6f-25c2d0636b6c}, !- Thermal Zone Name
  ,                                       !- Part of Total Floor Area
  ,                                       !- Design Specification Outdoor Air Object Name
  ,                                       !- Building Unit Name
  Autocalculate;                          !- Volume {m3}

OS:Surface,
  {9f946c4f-a94d-4946-87a0-204ee59b1052}, !- Handle
  Perimeter_mid_ZN_2_Wall_East,           !- Name
  Wall,                                   !- Surface Type
  ,                                       !- Construction Name
  {7e340c82-5b29-41c5-9ccd-9a28338e4ae1}, !- Space Name
  Outdoors,                               !- Outside Boundary Condition
  ,                                       !- Outside Boundary Condition Object
  SunExposed,                             !- Sun Exposure
  WindExposed,                            !- Wind Exposure
  ,                                       !- View Factor to Ground
  ,                                       !- Number of Vertices
  4.5732, 0, 2.744,                       !- X,Y,Z Vertex 1 {m}
  4.5732, 0, 0,                           !- X,Y,Z Vertex 2 {m}
  4.5732, 48.7381, 0,                     !- X,Y,Z Vertex 3 {m}
  4.5732, 48.7381, 2.744;                 !- X,Y,Z Vertex 4 {m}

OS:Connection,
  {645d04e0-4f17-4ec0-b149-bb89a6ef1e82}, !- Handle
  ,                                       !- Source Object
  11,                                     !- Outlet Port
  ,                                       !- Target Object
  2;                                      !- Inlet Port

OS:Space,
  {7e340c82-5b29-41c5-9ccd-9a28338e4ae1}, !- Handle
  Perimeter_mid_ZN_2,                     !- Name
  {cbc1800d-3058-4bca-9be8-d37e6a76ff55}, !- Space Type Name
  ,                                       !- Default Construction Set Name
  ,                                       !- Default Schedule Set Name
  -0,                                     !- Direction of Relative North {deg}
  68.534,                                 !- X Origin {m}
  0,                                      !- Y Origin {m}
  19.816,                                 !- Z Origin {m}
  {90e8f18c-4e90-4136-9df3-52f333e3fb0e}, !- Building Story Name
  {06d7dce1-0bec-4ff1-8558-2e94fba36210}, !- Thermal Zone Name
  Yes,                                    !- Part of Total Floor Area
  ,                                       !- Design Specification Outdoor Air Object Name
  ,                                       !- Building Unit Name
  Autocalculate;                          !- Volume {m3}

OS:Surface,
  {370e7613-b020-4b6d-9a06-8f9b943f6665}, !- Handle
  Perimeter_mid_ZN_1_Ceiling,             !- Name
  RoofCeiling,                            !- Surface Type
  ,                                       !- Construction Name
  {fbcda114-4a6f-4d17-ba38-7d71c7b8bbff}, !- Space Name
  Surface,                                !- Outside Boundary Condition
  {9cd5a643-1952-4351-bac4-6ce973890b8f}, !- Outside Boundary Condition Object
  NoSun,                                  !- Sun Exposure
  NoWind,                                 !- Wind Exposure
  ,                                       !- View Factor to Ground
  ,                                       !- Number of Vertices
  73.1072, 0, 2.744,                      !- X,Y,Z Vertex 1 {m}
  68.534, 4.5732, 2.744,                  !- X,Y,Z Vertex 2 {m}
  4.5732, 4.5732, 2.744,                  !- X,Y,Z Vertex 3 {m}
  0, 0, 2.744;                            !- X,Y,Z Vertex 4 {m}

OS:Connection,
  {7abf3751-f702-4fe6-ae5f-b74b2eb0bca6}, !- Handle
  ,                                       !- Source Object
  11,                                     !- Outlet Port
  ,                                       !- Target Object
  2;                                      !- Inlet Port

OS:Space,
  {fbcda114-4a6f-4d17-ba38-7d71c7b8bbff}, !- Handle
  Perimeter_mid_ZN_1,                     !- Name
  {cbc1800d-3058-4bca-9be8-d37e6a76ff55}, !- Space Type Name
  ,                                       !- Default Construction Set Name
  ,                                       !- Default Schedule Set Name
  -0,                                     !- Direction of Relative North {deg}
  0,                                      !- X Origin {m}
  0,                                      !- Y Origin {m}
  19.816,                                 !- Z Origin {m}
  {90e8f18c-4e90-4136-9df3-52f333e3fb0e}, !- Building Story Name
  {0399d5ae-98a8-4159-940d-df8dce592b2b}, !- Thermal Zone Name
  Yes,                                    !- Part of Total Floor Area
  ,                                       !- Design Specification Outdoor Air Object Name
  ,                                       !- Building Unit Name
  Autocalculate;                          !- Volume {m3}

OS:Connection,
  {9393ffb6-9c9d-4309-b9b2-f354ef4e756c}, !- Handle
  ,                                       !- Source Object
  11,                                     !- Outlet Port
  ,                                       !- Target Object
  2;                                      !- Inlet Port

OS:Space,
  {d6fae17a-2423-4ae7-b189-02f65601f395}, !- Handle
  MidFloor_Plenum,                        !- Name
  {89f0d366-eba1-4d30-847b-e0e91684e056}, !- Space Type Name
  ,                                       !- Default Construction Set Name
  ,                                       !- Default Schedule Set Name
  -0,                                     !- Direction of Relative North {deg}
  0,                                      !- X Origin {m}
  0,                                      !- Y Origin {m}
  22.56,                                  !- Z Origin {m}
  {90e8f18c-4e90-4136-9df3-52f333e3fb0e}, !- Building Story Name
  {37f6a379-4e3f-43b1-bf76-18967e2ca668}, !- Thermal Zone Name
  No,                                     !- Part of Total Floor Area
  ,                                       !- Design Specification Outdoor Air Object Name
  ,                                       !- Building Unit Name
  Autocalculate;                          !- Volume {m3}

OS:Surface,
  {9cd5a643-1952-4351-bac4-6ce973890b8f}, !- Handle
  Perimeter_mid_ZN_1_Ceiling Reversed,    !- Name
  Floor,                                  !- Surface Type
  ,                                       !- Construction Name
  {d6fae17a-2423-4ae7-b189-02f65601f395}, !- Space Name
  Surface,                                !- Outside Boundary Condition
  {370e7613-b020-4b6d-9a06-8f9b943f6665}, !- Outside Boundary Condition Object
  NoSun,                                  !- Sun Exposure
  NoWind,                                 !- Wind Exposure
  ,                                       !- View Factor to Ground
  ,                                       !- Number of Vertices
  68.534, 4.5732, 0,                      !- X,Y,Z Vertex 1 {m}
  73.1072, 0, 0,                          !- X,Y,Z Vertex 2 {m}
  0, 0, 0,                                !- X,Y,Z Vertex 3 {m}
  4.5732, 4.5732, 0;                      !- X,Y,Z Vertex 4 {m}

OS:Surface,
  {9fc7900b-60c5-4318-be68-c2a994c9c978}, !- Handle
  DataCenter_mid_ZN_6_Wall_West,          !- Name
  Wall,                                   !- Surface Type
  ,                                       !- Construction Name
  {2c6ae4f5-d65e-4636-8802-7d13d7260722}, !- Space Name
  Surface,                                !- Outside Boundary Condition
  {82f55c5e-745b-4c15-a423-60bddbf56c5a}, !- Outside Boundary Condition Object
  NoSun,                                  !- Sun Exposure
  NoWind,                                 !- Wind Exposure
  0,                                      !- View Factor to Ground
  ,                                       !- Number of Vertices
  0, 39.5918, 2.744,                      !- X,Y,Z Vertex 1 {m}
  0, 39.5918, 0,                          !- X,Y,Z Vertex 2 {m}
  0, 0, 0,                                !- X,Y,Z Vertex 3 {m}
  0, 0, 2.744;                            !- X,Y,Z Vertex 4 {m}

OS:Connection,
  {9681051a-f3a5-4053-856c-37ade7c423f7}, !- Handle
  ,                                       !- Source Object
  11,                                     !- Outlet Port
  ,                                       !- Target Object
  2;                                      !- Inlet Port

OS:Space,
  {2c6ae4f5-d65e-4636-8802-7d13d7260722}, !- Handle
  DataCenter_mid_ZN_6,                    !- Name
  {cbc1800d-3058-4bca-9be8-d37e6a76ff55}, !- Space Type Name
  ,                                       !- Default Construction Set Name
  ,                                       !- Default Schedule Set Name
  -0,                                     !- Direction of Relative North {deg}
  4.5732,                                 !- X Origin {m}
  4.5732,                                 !- Y Origin {m}
  19.816,                                 !- Z Origin {m}
  {90e8f18c-4e90-4136-9df3-52f333e3fb0e}, !- Building Story Name
  {a95ff747-fb68-4511-b868-7ada96bd0c33}, !- Thermal Zone Name
  ,                                       !- Part of Total Floor Area
  ,                                       !- Design Specification Outdoor Air Object Name
  ,                                       !- Building Unit Name
  Autocalculate;                          !- Volume {m3}

OS:Connection,
  {77b940a1-bfdd-4414-ad3c-632f18882d3f}, !- Handle
  ,                                       !- Source Object
  11,                                     !- Outlet Port
  ,                                       !- Target Object
  2;                                      !- Inlet Port

OS:Space,
  {252d5491-4adf-40c7-b2c2-5f3c366963cc}, !- Handle
  Core_bottom,                            !- Name
  {cbc1800d-3058-4bca-9be8-d37e6a76ff55}, !- Space Type Name
  ,                                       !- Default Construction Set Name
  ,                                       !- Default Schedule Set Name
  -0,                                     !- Direction of Relative North {deg}
  5.4876,                                 !- X Origin {m}
  4.5732,                                 !- Y Origin {m}
  0,                                      !- Z Origin {m}
  {1bf14578-5317-4bb7-bb78-67bfc4cef2af}, !- Building Story Name
  {48a3e156-79df-425b-a856-4f4d2424cd1f}, !- Thermal Zone Name
  Yes,                                    !- Part of Total Floor Area
  ,                                       !- Design Specification Outdoor Air Object Name
  ,                                       !- Building Unit Name
  Autocalculate;                          !- Volume {m3}

OS:Surface,
  {3fc96f62-dfdc-4573-82ee-671168d1232f}, !- Handle
  DataCenter_basement_ZN_6_Ceiling-Core_bot_ZN_5-PPAutoCreateOther, !- Name
  Floor,                                  !- Surface Type
  ,                                       !- Construction Name
  {252d5491-4adf-40c7-b2c2-5f3c366963cc}, !- Space Name
  Surface,                                !- Outside Boundary Condition
  {9c4cd6ed-9920-48ea-acd5-53d88fdbc4ec}, !- Outside Boundary Condition Object
  NoSun,                                  !- Sun Exposure
  NoWind,                                 !- Wind Exposure
  0,                                      !- View Factor to Ground
  ,                                       !- Number of Vertices
  10.5906, 39.5918, 0,                    !- X,Y,Z Vertex 1 {m}
  10.5906, 0, 0,                          !- X,Y,Z Vertex 2 {m}
  0, 0, 0,                                !- X,Y,Z Vertex 3 {m}
  0, 39.5918, 0;                          !- X,Y,Z Vertex 4 {m}

OS:Surface,
  {8cee6b0e-b327-4162-99af-bdd3fad8a288}, !- Handle
  Core_top_ZN_5_Wall_North-PPAutoCreateOther, !- Name
  Wall,                                   !- Surface Type
  ,                                       !- Construction Name
  {bf3e28c0-5c36-4ba7-8f6b-40c5c095b5f0}, !- Space Name
  Surface,                                !- Outside Boundary Condition
  {72a13a95-e4f4-4099-bbc4-a7b9a3d27dfa}, !- Outside Boundary Condition Object
  NoSun,                                  !- Sun Exposure
  NoWind,                                 !- Wind Exposure
  ,                                       !- View Factor to Ground
  ,                                       !- Number of Vertices
  5.4876, 0, 2.744,                       !- X,Y,Z Vertex 1 {m}
  5.4876, 0, 0,                           !- X,Y,Z Vertex 2 {m}
  68.534, 0, 0,                           !- X,Y,Z Vertex 3 {m}
  68.534, 0, 2.744;                       !- X,Y,Z Vertex 4 {m}

OS:Connection,
  {0e19e1d7-0299-4b30-b129-a244565ae369}, !- Handle
  ,                                       !- Source Object
  11,                                     !- Outlet Port
  ,                                       !- Target Object
  2;                                      !- Inlet Port

OS:Space,
  {bf3e28c0-5c36-4ba7-8f6b-40c5c095b5f0}, !- Handle
  Perimeter_top_ZN_3,                     !- Name
  {cbc1800d-3058-4bca-9be8-d37e6a76ff55}, !- Space Type Name
  ,                                       !- Default Construction Set Name
  ,                                       !- Default Schedule Set Name
  -0,                                     !- Direction of Relative North {deg}
  -7.21911419532262e-16,                  !- X Origin {m}
  44.165,                                 !- Y Origin {m}
  43.5952,                                !- Z Origin {m}
  {f4d26ab6-6069-4f95-a4bb-2505ee54b65c}, !- Building Story Name
  {a2a3faac-05df-4c8c-9a28-4e001e372151}, !- Thermal Zone Name
  Yes,                                    !- Part of Total Floor Area
  ,                                       !- Design Specification Outdoor Air Object Name
  ,                                       !- Building Unit Name
  Autocalculate;                          !- Volume {m3}

OS:Surface,
  {df5f6311-1983-4839-adb4-7ba4f4e7bbb8}, !- Handle
  Core_top_ZN_5_Wall_West,                !- Name
  Wall,                                   !- Surface Type
  ,                                       !- Construction Name
  {c37fd6ec-d4bc-468a-8c95-3ae276d0b5cb}, !- Space Name
  Surface,                                !- Outside Boundary Condition
  {3a8bc761-afcd-446c-955c-8e3f0810fe12}, !- Outside Boundary Condition Object
  NoSun,                                  !- Sun Exposure
  NoWind,                                 !- Wind Exposure
  ,                                       !- View Factor to Ground
  ,                                       !- Number of Vertices
  0, 39.5918, 2.744,                      !- X,Y,Z Vertex 1 {m}
  0, 39.5918, 0,                          !- X,Y,Z Vertex 2 {m}
  0, 0, 0,                                !- X,Y,Z Vertex 3 {m}
  0, 0, 2.744;                            !- X,Y,Z Vertex 4 {m}

OS:Connection,
  {8afa0a8b-ee8f-4b3c-8e8f-0ca3fc7dde2f}, !- Handle
  ,                                       !- Source Object
  11,                                     !- Outlet Port
  ,                                       !- Target Object
  2;                                      !- Inlet Port

OS:Space,
  {c37fd6ec-d4bc-468a-8c95-3ae276d0b5cb}, !- Handle
  Core_top,                               !- Name
  {cbc1800d-3058-4bca-9be8-d37e6a76ff55}, !- Space Type Name
  ,                                       !- Default Construction Set Name
  ,                                       !- Default Schedule Set Name
  -0,                                     !- Direction of Relative North {deg}
  5.4876,                                 !- X Origin {m}
  4.5732,                                 !- Y Origin {m}
  43.5952,                                !- Z Origin {m}
  {f4d26ab6-6069-4f95-a4bb-2505ee54b65c}, !- Building Story Name
  {ee72db78-9a49-4da6-b0a4-e40173294359}, !- Thermal Zone Name
  Yes,                                    !- Part of Total Floor Area
  ,                                       !- Design Specification Outdoor Air Object Name
  ,                                       !- Building Unit Name
  Autocalculate;                          !- Volume {m3}

OS:Surface,
  {2faf7f65-dc91-4a4d-b0f7-4f072bfecaca}, !- Handle
  Perimeter_bot_ZN_3_Floor,               !- Name
  Floor,                                  !- Surface Type
  ,                                       !- Construction Name
  {d59c9de6-0b6a-4003-83b3-9abbb0fc11e6}, !- Space Name
  Surface,                                !- Outside Boundary Condition
  {32afe101-496f-43d3-9c79-7a7981fd2075}, !- Outside Boundary Condition Object
  NoSun,                                  !- Sun Exposure
  NoWind,                                 !- Wind Exposure
  ,                                       !- View Factor to Ground
  ,                                       !- Number of Vertices
  73.1072, 4.5731, 0,                     !- X,Y,Z Vertex 1 {m}
  68.534, 0, 0,                           !- X,Y,Z Vertex 2 {m}
  16.0782, 0, 0,                          !- X,Y,Z Vertex 3 {m}
  16.0782, 4.5731, 0;                     !- X,Y,Z Vertex 4 {m}

OS:Connection,
  {3d32fb73-f9c5-4bdc-a228-0ecec70b892f}, !- Handle
  ,                                       !- Source Object
  11,                                     !- Outlet Port
  ,                                       !- Target Object
  2;                                      !- Inlet Port

OS:Space,
  {d59c9de6-0b6a-4003-83b3-9abbb0fc11e6}, !- Handle
  Perimeter_bot_ZN_3,                     !- Name
  {cbc1800d-3058-4bca-9be8-d37e6a76ff55}, !- Space Type Name
  ,                                       !- Default Construction Set Name
  ,                                       !- Default Schedule Set Name
  -0,                                     !- Direction of Relative North {deg}
  0,                                      !- X Origin {m}
  44.165,                                 !- Y Origin {m}
  0,                                      !- Z Origin {m}
  {1bf14578-5317-4bb7-bb78-67bfc4cef2af}, !- Building Story Name
  {5da9bcce-1d3e-489d-9756-9859fbeb4a23}, !- Thermal Zone Name
  Yes,                                    !- Part of Total Floor Area
  ,                                       !- Design Specification Outdoor Air Object Name
  ,                                       !- Building Unit Name
  Autocalculate;                          !- Volume {m3}

OS:Surface,
  {32149b41-adb7-4b41-ad95-c08825e09295}, !- Handle
  DataCenter_basement_ZN_6_Ceiling-Perimeter_bot_ZN_3-PPAutoCreateOther, !- Name
  Floor,                                  !- Surface Type
  ,                                       !- Construction Name
  {d59c9de6-0b6a-4003-83b3-9abbb0fc11e6}, !- Space Name
  Surface,                                !- Outside Boundary Condition
  {b1dd3025-42eb-41bc-bddf-fec82b89cafe}, !- Outside Boundary Condition Object
  NoSun,                                  !- Sun Exposure
  NoWind,                                 !- Wind Exposure
  0,                                      !- View Factor to Ground
  ,                                       !- Number of Vertices
  16.0782, 4.5731, 0,                     !- X,Y,Z Vertex 1 {m}
  16.0782, 0, 0,                          !- X,Y,Z Vertex 2 {m}
  4.5732, 0, 0,                           !- X,Y,Z Vertex 3 {m}
  0, 4.5731, 0;                           !- X,Y,Z Vertex 4 {m}

OS:Surface,
  {854b52f5-21fb-456c-860e-acb024deb99a}, !- Handle
  Basement_Wall_North,                    !- Name
  Wall,                                   !- Surface Type
  {52ff4ced-82d1-45ac-ba65-b0ad64234cdc}, !- Construction Name
  {5eccad29-dadd-43c0-a26c-31e00e7702be}, !- Space Name
  Foundation,                             !- Outside Boundary Condition
  {33872eff-a21b-4ac8-8fef-7359f60454d9}, !- Outside Boundary Condition Object
  NoSun,                                  !- Sun Exposure
  NoWind,                                 !- Wind Exposure
  0,                                      !- View Factor to Ground
  ,                                       !- Number of Vertices
  57.0278, 48.7381, 2.439,                !- X,Y,Z Vertex 1 {m}
  57.0278, 48.7381, 0,                    !- X,Y,Z Vertex 2 {m}
  0, 48.7381, 0,                          !- X,Y,Z Vertex 3 {m}
  0, 48.7381, 2.439;                      !- X,Y,Z Vertex 4 {m}

OS:Connection,
  {369ba6a2-fece-4fdc-b5da-a7d152f0d596}, !- Handle
  ,                                       !- Source Object
  11,                                     !- Outlet Port
  ,                                       !- Target Object
  2;                                      !- Inlet Port

OS:Space,
  {5eccad29-dadd-43c0-a26c-31e00e7702be}, !- Handle
  Basement,                               !- Name
  {5abd617c-0032-4623-94a3-ca7b89d01fa8}, !- Space Type Name
  ,                                       !- Default Construction Set Name
  ,                                       !- Default Schedule Set Name
  -0,                                     !- Direction of Relative North {deg}
  16.0794,                                !- X Origin {m}
  0,                                      !- Y Origin {m}
  -2.439,                                 !- Z Origin {m}
  {34fed859-ffd9-4b75-89d6-fc353a47f793}, !- Building Story Name
  {b5673e21-18af-43e9-ac0b-5568d3f6da24}, !- Thermal Zone Name
  Yes,                                    !- Part of Total Floor Area
  ,                                       !- Design Specification Outdoor Air Object Name
  ,                                       !- Building Unit Name
  Autocalculate;                          !- Volume {m3}

OS:Surface,
  {4ac6ea44-6fad-4d22-9242-726039b5b7bb}, !- Handle
  Perimeter_bot_ZN_4_Wall_South-PPAutoCreateOther, !- Name
  Wall,                                   !- Surface Type
  ,                                       !- Construction Name
  {2ff425f9-c1f4-46e4-a7b6-d29a1f6709fc}, !- Space Name
  Surface,                                !- Outside Boundary Condition
  {bc756393-0073-4502-8f6d-e63a633caa70}, !- Outside Boundary Condition Object
  NoSun,                                  !- Sun Exposure
  NoWind,                                 !- Wind Exposure
  ,                                       !- View Factor to Ground
  ,                                       !- Number of Vertices
  4.5732, 4.5732, 2.744,                  !- X,Y,Z Vertex 1 {m}
  4.5732, 4.5732, 0,                      !- X,Y,Z Vertex 2 {m}
  0, 0, 0,                                !- X,Y,Z Vertex 3 {m}
  0, 0, 2.744;                            !- X,Y,Z Vertex 4 {m}

OS:Connection,
  {bd5182e7-3f50-417b-ad69-5b0a16f52fb6}, !- Handle
  ,                                       !- Source Object
  11,                                     !- Outlet Port
  ,                                       !- Target Object
  2;                                      !- Inlet Port

OS:Space,
  {2ff425f9-c1f4-46e4-a7b6-d29a1f6709fc}, !- Handle
  Perimeter_bot_ZN_1,                     !- Name
  {cbc1800d-3058-4bca-9be8-d37e6a76ff55}, !- Space Type Name
  ,                                       !- Default Construction Set Name
  ,                                       !- Default Schedule Set Name
  -0,                                     !- Direction of Relative North {deg}
  0,                                      !- X Origin {m}
  0,                                      !- Y Origin {m}
  0,                                      !- Z Origin {m}
  {1bf14578-5317-4bb7-bb78-67bfc4cef2af}, !- Building Story Name
  {8ff42a32-b5b4-40aa-9a44-e8397bb5fe81}, !- Thermal Zone Name
  Yes,                                    !- Part of Total Floor Area
  ,                                       !- Design Specification Outdoor Air Object Name
  ,                                       !- Building Unit Name
  Autocalculate;                          !- Volume {m3}

OS:Surface,
  {348fd855-e97f-4cdb-a25d-8816afdd6950}, !- Handle
  Core_mid_ZN_5_Floor,                    !- Name
  Floor,                                  !- Surface Type
  {698186c8-2099-4c48-be16-77de4cd8bec2}, !- Construction Name
  {c9532ad7-da0a-45f9-96ed-ea62ab17db64}, !- Space Name
  Adiabatic,                              !- Outside Boundary Condition
  ,                                       !- Outside Boundary Condition Object
  NoSun,                                  !- Sun Exposure
  NoWind,                                 !- Wind Exposure
  ,                                       !- View Factor to Ground
  ,                                       !- Number of Vertices
  63.0464, 39.5918, 0,                    !- X,Y,Z Vertex 1 {m}
  63.0464, 0, 0,                          !- X,Y,Z Vertex 2 {m}
  0, 0, 0,                                !- X,Y,Z Vertex 3 {m}
  0, 39.5918, 0;                          !- X,Y,Z Vertex 4 {m}

OS:Surface,
  {32afe101-496f-43d3-9c79-7a7981fd2075}, !- Handle
  Perimeter_bot_ZN_3_Floor-PPAutoCreateOther, !- Name
  RoofCeiling,                            !- Surface Type
  ,                                       !- Construction Name
  {5eccad29-dadd-43c0-a26c-31e00e7702be}, !- Space Name
  Surface,                                !- Outside Boundary Condition
  {2faf7f65-dc91-4a4d-b0f7-4f072bfecaca}, !- Outside Boundary Condition Object
  NoSun,                                  !- Sun Exposure
  NoWind,                                 !- Wind Exposure
  0,                                      !- View Factor to Ground
  ,                                       !- Number of Vertices
  52.4546, 44.165, 2.439,                 !- X,Y,Z Vertex 1 {m}
  57.0278, 48.7381, 2.439,                !- X,Y,Z Vertex 2 {m}
  0, 48.7381, 2.439,                      !- X,Y,Z Vertex 3 {m}
  0, 44.165, 2.439;                       !- X,Y,Z Vertex 4 {m}

OS:Surface,
  {0f1914d6-ade6-41b4-8464-a6e8d7b35a54}, !- Handle
  Perimeter_mid_ZN_3_Wall_North,          !- Name
  Wall,                                   !- Surface Type
  ,                                       !- Construction Name
  {acc296c2-5131-4947-b8bf-97711c02ad52}, !- Space Name
  Outdoors,                               !- Outside Boundary Condition
  ,                                       !- Outside Boundary Condition Object
  SunExposed,                             !- Sun Exposure
  WindExposed,                            !- Wind Exposure
  ,                                       !- View Factor to Ground
  ,                                       !- Number of Vertices
  73.1072, 4.5731, 2.744,                 !- X,Y,Z Vertex 1 {m}
  73.1072, 4.5731, 0,                     !- X,Y,Z Vertex 2 {m}
  0, 4.5731, 0,                           !- X,Y,Z Vertex 3 {m}
  0, 4.5731, 2.744;                       !- X,Y,Z Vertex 4 {m}

OS:Connection,
  {4bef2448-43f2-4269-a794-d6d35454c2e8}, !- Handle
  ,                                       !- Source Object
  11,                                     !- Outlet Port
  ,                                       !- Target Object
  2;                                      !- Inlet Port

OS:Space,
  {acc296c2-5131-4947-b8bf-97711c02ad52}, !- Handle
  Perimeter_mid_ZN_3,                     !- Name
  {cbc1800d-3058-4bca-9be8-d37e6a76ff55}, !- Space Type Name
  ,                                       !- Default Construction Set Name
  ,                                       !- Default Schedule Set Name
  -0,                                     !- Direction of Relative North {deg}
  0,                                      !- X Origin {m}
  44.165,                                 !- Y Origin {m}
  19.816,                                 !- Z Origin {m}
  {90e8f18c-4e90-4136-9df3-52f333e3fb0e}, !- Building Story Name
  {edab59b6-9f18-4869-bd4c-e9d216889433}, !- Thermal Zone Name
  Yes,                                    !- Part of Total Floor Area
  ,                                       !- Design Specification Outdoor Air Object Name
  ,                                       !- Building Unit Name
  Autocalculate;                          !- Volume {m3}

OS:Surface,
  {ec5ced3e-87c0-415a-9ceb-d3bad643a050}, !- Handle
  Core_bot_ZN_5_Wall_South-PPAutoCreateOther, !- Name
  Wall,                                   !- Surface Type
  ,                                       !- Construction Name
  {2ff425f9-c1f4-46e4-a7b6-d29a1f6709fc}, !- Space Name
  Surface,                                !- Outside Boundary Condition
  {268a7e22-63ae-4eb3-86fe-ead5ac1ec3cb}, !- Outside Boundary Condition Object
  NoSun,                                  !- Sun Exposure
  NoWind,                                 !- Wind Exposure
  0,                                      !- View Factor to Ground
  ,                                       !- Number of Vertices
  68.534, 4.5732, 2.744,                  !- X,Y,Z Vertex 1 {m}
  68.534, 4.5732, 0,                      !- X,Y,Z Vertex 2 {m}
  5.4876, 4.5732, 0,                      !- X,Y,Z Vertex 3 {m}
  5.4876, 4.5732, 2.744;                  !- X,Y,Z Vertex 4 {m}

OS:Surface,
  {3d4da348-f579-48a3-a1d9-b5c14b19b5ed}, !- Handle
  DataCenter_mid_ZN_6_Wall_North-PPAutoCreateOther, !- Name
  Wall,                                   !- Surface Type
  ,                                       !- Construction Name
  {acc296c2-5131-4947-b8bf-97711c02ad52}, !- Space Name
  Surface,                                !- Outside Boundary Condition
  {22e35ab3-431d-400d-baa8-2de55185eb9d}, !- Outside Boundary Condition Object
  NoSun,                                  !- Sun Exposure
  NoWind,                                 !- Wind Exposure
  0,                                      !- View Factor to Ground
  ,                                       !- Number of Vertices
  4.5732, 0, 2.744,                       !- X,Y,Z Vertex 1 {m}
  4.5732, 0, 0,                           !- X,Y,Z Vertex 2 {m}
  5.4876, 0, 0,                           !- X,Y,Z Vertex 3 {m}
  5.4876, 0, 2.744;                       !- X,Y,Z Vertex 4 {m}

OS:Surface,
  {7e4d234e-0c7f-491f-aa72-623b5d531074}, !- Handle
  Perimeter_top_ZN_2_Floor,               !- Name
  Floor,                                  !- Surface Type
  {698186c8-2099-4c48-be16-77de4cd8bec2}, !- Construction Name
  {fef7f608-2812-417a-a2ec-fcc3d22db84e}, !- Space Name
  Adiabatic,                              !- Outside Boundary Condition
  ,                                       !- Outside Boundary Condition Object
  NoSun,                                  !- Sun Exposure
  NoWind,                                 !- Wind Exposure
  ,                                       !- View Factor to Ground
  ,                                       !- Number of Vertices
  4.5732, 48.7381, 0,                     !- X,Y,Z Vertex 1 {m}
  4.5732, 0, 0,                           !- X,Y,Z Vertex 2 {m}
  0, 4.5732, 0,                           !- X,Y,Z Vertex 3 {m}
  0, 44.165, 0;                           !- X,Y,Z Vertex 4 {m}

OS:Connection,
  {f1438db1-853f-48df-8564-c718f1b533e1}, !- Handle
  ,                                       !- Source Object
  11,                                     !- Outlet Port
  ,                                       !- Target Object
  2;                                      !- Inlet Port

OS:Space,
  {fef7f608-2812-417a-a2ec-fcc3d22db84e}, !- Handle
  Perimeter_top_ZN_2,                     !- Name
  {cbc1800d-3058-4bca-9be8-d37e6a76ff55}, !- Space Type Name
  ,                                       !- Default Construction Set Name
  ,                                       !- Default Schedule Set Name
  -0,                                     !- Direction of Relative North {deg}
  68.534,                                 !- X Origin {m}
  0,                                      !- Y Origin {m}
  43.5952,                                !- Z Origin {m}
  {f4d26ab6-6069-4f95-a4bb-2505ee54b65c}, !- Building Story Name
  {8528354c-80a7-4bdb-9644-d50da582284a}, !- Thermal Zone Name
  Yes,                                    !- Part of Total Floor Area
  ,                                       !- Design Specification Outdoor Air Object Name
  ,                                       !- Building Unit Name
  Autocalculate;                          !- Volume {m3}

OS:Surface,
  {a6970fb2-9438-492c-b381-0e01c4325c0f}, !- Handle
  Perimeter_bot_ZN_3_Wall_North,          !- Name
  Wall,                                   !- Surface Type
  ,                                       !- Construction Name
  {d59c9de6-0b6a-4003-83b3-9abbb0fc11e6}, !- Space Name
  Outdoors,                               !- Outside Boundary Condition
  ,                                       !- Outside Boundary Condition Object
  SunExposed,                             !- Sun Exposure
  WindExposed,                            !- Wind Exposure
  ,                                       !- View Factor to Ground
  ,                                       !- Number of Vertices
  73.1072, 4.5731, 2.744,                 !- X,Y,Z Vertex 1 {m}
  73.1072, 4.5731, 0,                     !- X,Y,Z Vertex 2 {m}
  0, 4.5731, 0,                           !- X,Y,Z Vertex 3 {m}
  0, 4.5731, 2.744;                       !- X,Y,Z Vertex 4 {m}

OS:Surface,
  {4dd079cc-3c4c-49b7-8eeb-039223867855}, !- Handle
  Perimeter_top_ZN_1_Wall_South,          !- Name
  Wall,                                   !- Surface Type
  ,                                       !- Construction Name
  {6f883ada-330c-4aa9-aba9-5812022ed701}, !- Space Name
  Outdoors,                               !- Outside Boundary Condition
  ,                                       !- Outside Boundary Condition Object
  SunExposed,                             !- Sun Exposure
  WindExposed,                            !- Wind Exposure
  ,                                       !- View Factor to Ground
  ,                                       !- Number of Vertices
  0, 0, 2.744,                            !- X,Y,Z Vertex 1 {m}
  0, 0, 0,                                !- X,Y,Z Vertex 2 {m}
  73.1072, 0, 0,                          !- X,Y,Z Vertex 3 {m}
  73.1072, 0, 2.744;                      !- X,Y,Z Vertex 4 {m}

OS:Connection,
  {7d324164-b702-48e8-895a-1af87cb5d98d}, !- Handle
  ,                                       !- Source Object
  11,                                     !- Outlet Port
  ,                                       !- Target Object
  2;                                      !- Inlet Port

OS:Space,
  {6f883ada-330c-4aa9-aba9-5812022ed701}, !- Handle
  Perimeter_top_ZN_1,                     !- Name
  {cbc1800d-3058-4bca-9be8-d37e6a76ff55}, !- Space Type Name
  ,                                       !- Default Construction Set Name
  ,                                       !- Default Schedule Set Name
  -0,                                     !- Direction of Relative North {deg}
  -7.21911419532262e-16,                  !- X Origin {m}
  0,                                      !- Y Origin {m}
  43.5952,                                !- Z Origin {m}
  {f4d26ab6-6069-4f95-a4bb-2505ee54b65c}, !- Building Story Name
  {fd7c5014-e123-41d4-a726-212f3d04d9af}, !- Thermal Zone Name
  Yes,                                    !- Part of Total Floor Area
  ,                                       !- Design Specification Outdoor Air Object Name
  ,                                       !- Building Unit Name
  Autocalculate;                          !- Volume {m3}

OS:Surface,
  {37aa0144-c104-405c-94fd-41890879a3f4}, !- Handle
  Core_mid_ZN_5_Wall_North,               !- Name
  Wall,                                   !- Surface Type
  ,                                       !- Construction Name
  {c9532ad7-da0a-45f9-96ed-ea62ab17db64}, !- Space Name
  Surface,                                !- Outside Boundary Condition
  {40c6b486-749c-4d5e-923b-073e53a6111d}, !- Outside Boundary Condition Object
  NoSun,                                  !- Sun Exposure
  NoWind,                                 !- Wind Exposure
  ,                                       !- View Factor to Ground
  ,                                       !- Number of Vertices
  63.0464, 39.5918, 2.744,                !- X,Y,Z Vertex 1 {m}
  63.0464, 39.5918, 0,                    !- X,Y,Z Vertex 2 {m}
  0, 39.5918, 0,                          !- X,Y,Z Vertex 3 {m}
  0, 39.5918, 2.744;                      !- X,Y,Z Vertex 4 {m}

OS:Surface,
  {f5f24163-243c-4464-9eda-91f98c0e1751}, !- Handle
  Perimeter_mid_ZN_4_Floor,               !- Name
  Floor,                                  !- Surface Type
  {698186c8-2099-4c48-be16-77de4cd8bec2}, !- Construction Name
  {fa6dd353-dcdd-40da-857d-4470740aa0d0}, !- Space Name
  Adiabatic,                              !- Outside Boundary Condition
  ,                                       !- Outside Boundary Condition Object
  NoSun,                                  !- Sun Exposure
  NoWind,                                 !- Wind Exposure
  ,                                       !- View Factor to Ground
  ,                                       !- Number of Vertices
  0, 48.7381, 0,                          !- X,Y,Z Vertex 1 {m}
  4.5732, 44.165, 0,                      !- X,Y,Z Vertex 2 {m}
  4.5732, 4.5732, 0,                      !- X,Y,Z Vertex 3 {m}
  0, 0, 0;                                !- X,Y,Z Vertex 4 {m}

OS:Connection,
  {76926763-67c0-4353-a559-bf83397724a0}, !- Handle
  ,                                       !- Source Object
  11,                                     !- Outlet Port
  ,                                       !- Target Object
  2;                                      !- Inlet Port

OS:Space,
  {fa6dd353-dcdd-40da-857d-4470740aa0d0}, !- Handle
  Perimeter_mid_ZN_4,                     !- Name
  {cbc1800d-3058-4bca-9be8-d37e6a76ff55}, !- Space Type Name
  ,                                       !- Default Construction Set Name
  ,                                       !- Default Schedule Set Name
  -0,                                     !- Direction of Relative North {deg}
  0,                                      !- X Origin {m}
  0,                                      !- Y Origin {m}
  19.816,                                 !- Z Origin {m}
  {90e8f18c-4e90-4136-9df3-52f333e3fb0e}, !- Building Story Name
  {4360546b-bfea-48b3-b43a-700fc5992877}, !- Thermal Zone Name
  Yes,                                    !- Part of Total Floor Area
  ,                                       !- Design Specification Outdoor Air Object Name
  ,                                       !- Building Unit Name
  Autocalculate;                          !- Volume {m3}

OS:Surface,
  {7231acf3-7b31-48ea-bb10-f50f61b62394}, !- Handle
  TopFloor_Plenum_Wall_North,             !- Name
  Wall,                                   !- Surface Type
  ,                                       !- Construction Name
  {d90bdd43-239b-4cf7-ae27-6c4e6b492a91}, !- Space Name
  Outdoors,                               !- Outside Boundary Condition
  ,                                       !- Outside Boundary Condition Object
  SunExposed,                             !- Sun Exposure
  WindExposed,                            !- Wind Exposure
  ,                                       !- View Factor to Ground
  ,                                       !- Number of Vertices
  0, 0, 1.2192,                           !- X,Y,Z Vertex 1 {m}
  0, 0, 0,                                !- X,Y,Z Vertex 2 {m}
  73.1072, 0, 0,                          !- X,Y,Z Vertex 3 {m}
  73.1072, 0, 1.2192;                     !- X,Y,Z Vertex 4 {m}

OS:Connection,
  {e422ee53-a159-424b-bad0-e6e749d45451}, !- Handle
  ,                                       !- Source Object
  11,                                     !- Outlet Port
  ,                                       !- Target Object
  2;                                      !- Inlet Port

OS:Space,
  {d90bdd43-239b-4cf7-ae27-6c4e6b492a91}, !- Handle
  TopFloor_Plenum,                        !- Name
  {89f0d366-eba1-4d30-847b-e0e91684e056}, !- Space Type Name
  ,                                       !- Default Construction Set Name
  ,                                       !- Default Schedule Set Name
  -0,                                     !- Direction of Relative North {deg}
  -7.21911419532262e-16,                  !- X Origin {m}
  0,                                      !- Y Origin {m}
  46.3392,                                !- Z Origin {m}
  {f4d26ab6-6069-4f95-a4bb-2505ee54b65c}, !- Building Story Name
  {15a3f151-c326-47df-ac56-9d411e9700da}, !- Thermal Zone Name
  No,                                     !- Part of Total Floor Area
  ,                                       !- Design Specification Outdoor Air Object Name
  ,                                       !- Building Unit Name
  Autocalculate;                          !- Volume {m3}

OS:Surface,
  {72a13a95-e4f4-4099-bbc4-a7b9a3d27dfa}, !- Handle
  Core_top_ZN_5_Wall_North,               !- Name
  Wall,                                   !- Surface Type
  ,                                       !- Construction Name
  {c37fd6ec-d4bc-468a-8c95-3ae276d0b5cb}, !- Space Name
  Surface,                                !- Outside Boundary Condition
  {8cee6b0e-b327-4162-99af-bdd3fad8a288}, !- Outside Boundary Condition Object
  NoSun,                                  !- Sun Exposure
  NoWind,                                 !- Wind Exposure
  ,                                       !- View Factor to Ground
  ,                                       !- Number of Vertices
  63.0464, 39.5918, 2.744,                !- X,Y,Z Vertex 1 {m}
  63.0464, 39.5918, 0,                    !- X,Y,Z Vertex 2 {m}
  0, 39.5918, 0,                          !- X,Y,Z Vertex 3 {m}
  0, 39.5918, 2.744;                      !- X,Y,Z Vertex 4 {m}

OS:Surface,
  {6b8053ca-b04c-40e5-8ba4-10cc9fc55980}, !- Handle
  Core_top_ZN_5_Wall_South-PPAutoCreateOther, !- Name
  Wall,                                   !- Surface Type
  ,                                       !- Construction Name
  {6f883ada-330c-4aa9-aba9-5812022ed701}, !- Space Name
  Surface,                                !- Outside Boundary Condition
  {ea4d5465-e417-4de3-87be-a97e95712b29}, !- Outside Boundary Condition Object
  NoSun,                                  !- Sun Exposure
  NoWind,                                 !- Wind Exposure
  0,                                      !- View Factor to Ground
  ,                                       !- Number of Vertices
  68.534, 4.5732, 2.744,                  !- X,Y,Z Vertex 1 {m}
  68.534, 4.5732, 0,                      !- X,Y,Z Vertex 2 {m}
  5.4876, 4.5732, 0,                      !- X,Y,Z Vertex 3 {m}
  5.4876, 4.5732, 2.744;                  !- X,Y,Z Vertex 4 {m}

OS:Surface,
  {b0087f00-3fb0-4aed-8f26-2feb89aefd87}, !- Handle
  GroundFloor_Plenum_Wall_East,           !- Name
  Wall,                                   !- Surface Type
  ,                                       !- Construction Name
  {b30407eb-ffd6-40ad-a549-5d1cfee1d345}, !- Space Name
  Outdoors,                               !- Outside Boundary Condition
  ,                                       !- Outside Boundary Condition Object
  SunExposed,                             !- Sun Exposure
  WindExposed,                            !- Wind Exposure
  ,                                       !- View Factor to Ground
  ,                                       !- Number of Vertices
  73.1072, 0, 1.2192,                     !- X,Y,Z Vertex 1 {m}
  73.1072, 0, 0,                          !- X,Y,Z Vertex 2 {m}
  73.1072, 48.7381, 0,                    !- X,Y,Z Vertex 3 {m}
  73.1072, 48.7381, 1.2192;               !- X,Y,Z Vertex 4 {m}

OS:Connection,
  {13570741-0dfe-441d-a7e6-81ef69c8431a}, !- Handle
  ,                                       !- Source Object
  11,                                     !- Outlet Port
  ,                                       !- Target Object
  2;                                      !- Inlet Port

OS:Space,
  {b30407eb-ffd6-40ad-a549-5d1cfee1d345}, !- Handle
  GroundFloor_Plenum,                     !- Name
  {89f0d366-eba1-4d30-847b-e0e91684e056}, !- Space Type Name
  ,                                       !- Default Construction Set Name
  ,                                       !- Default Schedule Set Name
  -0,                                     !- Direction of Relative North {deg}
  0,                                      !- X Origin {m}
  0,                                      !- Y Origin {m}
  2.744,                                  !- Z Origin {m}
  {1bf14578-5317-4bb7-bb78-67bfc4cef2af}, !- Building Story Name
  {123f457c-4e89-4a81-ad30-ed65de681bb4}, !- Thermal Zone Name
  No,                                     !- Part of Total Floor Area
  ,                                       !- Design Specification Outdoor Air Object Name
  ,                                       !- Building Unit Name
  Autocalculate;                          !- Volume {m3}

OS:Surface,
  {3270cf22-d4c9-4e55-a8ea-59c5909ad282}, !- Handle
  DataCenter_mid_ZN_6_ceiling,            !- Name
  RoofCeiling,                            !- Surface Type
  ,                                       !- Construction Name
  {2c6ae4f5-d65e-4636-8802-7d13d7260722}, !- Space Name
  Surface,                                !- Outside Boundary Condition
  {e838050d-fc73-424e-959f-a53b31429564}, !- Outside Boundary Condition Object
  NoSun,                                  !- Sun Exposure
  NoWind,                                 !- Wind Exposure
  0,                                      !- View Factor to Ground
  ,                                       !- Number of Vertices
  0.9144, 0, 2.744,                       !- X,Y,Z Vertex 1 {m}
  0.9144, 39.5918, 2.744,                 !- X,Y,Z Vertex 2 {m}
  0, 39.5918, 2.744,                      !- X,Y,Z Vertex 3 {m}
  0, 0, 2.744;                            !- X,Y,Z Vertex 4 {m}

OS:Surface,
  {e838050d-fc73-424e-959f-a53b31429564}, !- Handle
  DataCenter_mid_ZN_6_ceiling Reversed,   !- Name
  Floor,                                  !- Surface Type
  ,                                       !- Construction Name
  {d6fae17a-2423-4ae7-b189-02f65601f395}, !- Space Name
  Surface,                                !- Outside Boundary Condition
  {3270cf22-d4c9-4e55-a8ea-59c5909ad282}, !- Outside Boundary Condition Object
  NoSun,                                  !- Sun Exposure
  NoWind,                                 !- Wind Exposure
  ,                                       !- View Factor to Ground
  ,                                       !- Number of Vertices
  5.4876, 44.165, 0,                      !- X,Y,Z Vertex 1 {m}
  5.4876, 4.5732, 0,                      !- X,Y,Z Vertex 2 {m}
  4.5732, 4.5732, 0,                      !- X,Y,Z Vertex 3 {m}
  4.5732, 44.165, 0;                      !- X,Y,Z Vertex 4 {m}

OS:Surface,
  {268a7e22-63ae-4eb3-86fe-ead5ac1ec3cb}, !- Handle
  Core_bot_ZN_5_Wall_South,               !- Name
  Wall,                                   !- Surface Type
  ,                                       !- Construction Name
  {252d5491-4adf-40c7-b2c2-5f3c366963cc}, !- Space Name
  Surface,                                !- Outside Boundary Condition
  {ec5ced3e-87c0-415a-9ceb-d3bad643a050}, !- Outside Boundary Condition Object
  NoSun,                                  !- Sun Exposure
  NoWind,                                 !- Wind Exposure
  0,                                      !- View Factor to Ground
  ,                                       !- Number of Vertices
  0, 0, 2.744,                            !- X,Y,Z Vertex 1 {m}
  0, 0, 0,                                !- X,Y,Z Vertex 2 {m}
  63.0464, 0, 0,                          !- X,Y,Z Vertex 3 {m}
  63.0464, 0, 2.744;                      !- X,Y,Z Vertex 4 {m}

OS:Surface,
  {7e083f99-2b31-4363-9b2a-f6d084494fb0}, !- Handle
  DataCenter_top_ZN_6_Wall_West-PPAutoCreateOther, !- Name
  Wall,                                   !- Surface Type
  ,                                       !- Construction Name
  {6cd1cb1e-ec74-478a-b671-0892d887d9ed}, !- Space Name
  Surface,                                !- Outside Boundary Condition
  {ed92cf24-f8ab-4211-92b7-601209dfbe32}, !- Outside Boundary Condition Object
  NoSun,                                  !- Sun Exposure
  NoWind,                                 !- Wind Exposure
  0,                                      !- View Factor to Ground
  ,                                       !- Number of Vertices
  4.5732, 4.5732, 2.744,                  !- X,Y,Z Vertex 1 {m}
  4.5732, 4.5732, 0,                      !- X,Y,Z Vertex 2 {m}
  4.5732, 44.165, 0,                      !- X,Y,Z Vertex 3 {m}
  4.5732, 44.165, 2.744;                  !- X,Y,Z Vertex 4 {m}

OS:Connection,
  {f99e5a14-73ce-4e5a-8c00-811ae04bffdf}, !- Handle
  ,                                       !- Source Object
  11,                                     !- Outlet Port
  ,                                       !- Target Object
  2;                                      !- Inlet Port

OS:Space,
  {6cd1cb1e-ec74-478a-b671-0892d887d9ed}, !- Handle
  Perimeter_top_ZN_4,                     !- Name
  {cbc1800d-3058-4bca-9be8-d37e6a76ff55}, !- Space Type Name
  ,                                       !- Default Construction Set Name
  ,                                       !- Default Schedule Set Name
  -0,                                     !- Direction of Relative North {deg}
  -7.21911419532262e-16,                  !- X Origin {m}
  0,                                      !- Y Origin {m}
  43.5952,                                !- Z Origin {m}
  {f4d26ab6-6069-4f95-a4bb-2505ee54b65c}, !- Building Story Name
  {102b0853-1240-4e3c-9f18-5afee6d581f4}, !- Thermal Zone Name
  Yes,                                    !- Part of Total Floor Area
  ,                                       !- Design Specification Outdoor Air Object Name
  ,                                       !- Building Unit Name
  Autocalculate;                          !- Volume {m3}

OS:Surface,
  {22589ad2-e202-40f0-8ea4-3a1465dc671e}, !- Handle
  Perimeter_top_ZN_3_Wall_North,          !- Name
  Wall,                                   !- Surface Type
  ,                                       !- Construction Name
  {bf3e28c0-5c36-4ba7-8f6b-40c5c095b5f0}, !- Space Name
  Outdoors,                               !- Outside Boundary Condition
  ,                                       !- Outside Boundary Condition Object
  SunExposed,                             !- Sun Exposure
  WindExposed,                            !- Wind Exposure
  ,                                       !- View Factor to Ground
  ,                                       !- Number of Vertices
  73.1072, 4.5731, 2.744,                 !- X,Y,Z Vertex 1 {m}
  73.1072, 4.5731, 0,                     !- X,Y,Z Vertex 2 {m}
  0, 4.5731, 0,                           !- X,Y,Z Vertex 3 {m}
  0, 4.5731, 2.744;                       !- X,Y,Z Vertex 4 {m}

OS:Surface,
  {a6919b0b-58df-46c6-8fe2-a963546c6f00}, !- Handle
  Perimeter_bot_ZN_1_Wall_South,          !- Name
  Wall,                                   !- Surface Type
  ,                                       !- Construction Name
  {2ff425f9-c1f4-46e4-a7b6-d29a1f6709fc}, !- Space Name
  Outdoors,                               !- Outside Boundary Condition
  ,                                       !- Outside Boundary Condition Object
  SunExposed,                             !- Sun Exposure
  WindExposed,                            !- Wind Exposure
  ,                                       !- View Factor to Ground
  ,                                       !- Number of Vertices
  0, 0, 2.744,                            !- X,Y,Z Vertex 1 {m}
  0, 0, 0,                                !- X,Y,Z Vertex 2 {m}
  73.1072, 0, 0,                          !- X,Y,Z Vertex 3 {m}
  73.1072, 0, 2.744;                      !- X,Y,Z Vertex 4 {m}

OS:Surface,
  {99fa349e-a325-406a-8cf7-4e0a1c73bbd4}, !- Handle
  Building_Roof,                          !- Name
  RoofCeiling,                            !- Surface Type
  ,                                       !- Construction Name
  {d90bdd43-239b-4cf7-ae27-6c4e6b492a91}, !- Space Name
  Outdoors,                               !- Outside Boundary Condition
  ,                                       !- Outside Boundary Condition Object
  SunExposed,                             !- Sun Exposure
  WindExposed,                            !- Wind Exposure
  ,                                       !- View Factor to Ground
  ,                                       !- Number of Vertices
  73.1072, 0, 1.2192,                     !- X,Y,Z Vertex 1 {m}
  73.1072, 48.7381, 1.2192,               !- X,Y,Z Vertex 2 {m}
  0, 48.7381, 1.2192,                     !- X,Y,Z Vertex 3 {m}
  0, 0, 1.2192;                           !- X,Y,Z Vertex 4 {m}

OS:Surface,
  {b1dd3025-42eb-41bc-bddf-fec82b89cafe}, !- Handle
  DataCenter_basement_ZN_6_Ceiling-Perimeter_bot_ZN_3, !- Name
  RoofCeiling,                            !- Surface Type
  ,                                       !- Construction Name
  {c7138cc2-589b-4e88-aa9b-6561b087ce28}, !- Space Name
  Surface,                                !- Outside Boundary Condition
  {32149b41-adb7-4b41-ad95-c08825e09295}, !- Outside Boundary Condition Object
  NoSun,                                  !- Sun Exposure
  NoWind,                                 !- Wind Exposure
  0,                                      !- View Factor to Ground
  ,                                       !- Number of Vertices
  16.0782, 44.165, 2.439,                 !- X,Y,Z Vertex 1 {m}
  16.0782, 48.7381, 2.439,                !- X,Y,Z Vertex 2 {m}
  0, 48.7381, 2.439,                      !- X,Y,Z Vertex 3 {m}
  4.5732, 44.165, 2.439;                  !- X,Y,Z Vertex 4 {m}

OS:Connection,
  {f02bb41f-83af-40d9-963d-acaea1cef39e}, !- Handle
  ,                                       !- Source Object
  11,                                     !- Outlet Port
  ,                                       !- Target Object
  2;                                      !- Inlet Port

OS:Space,
  {c7138cc2-589b-4e88-aa9b-6561b087ce28}, !- Handle
  DataCenter_basement_ZN_6,               !- Name
  {cbc1800d-3058-4bca-9be8-d37e6a76ff55}, !- Space Type Name
  ,                                       !- Default Construction Set Name
  ,                                       !- Default Schedule Set Name
  -0,                                     !- Direction of Relative North {deg}
  0,                                      !- X Origin {m}
  0,                                      !- Y Origin {m}
  -2.439,                                 !- Z Origin {m}
  {34fed859-ffd9-4b75-89d6-fc353a47f793}, !- Building Story Name
  {f172e02a-71c2-4a5a-a556-641b371dfb8c}, !- Thermal Zone Name
  ,                                       !- Part of Total Floor Area
  ,                                       !- Design Specification Outdoor Air Object Name
  ,                                       !- Building Unit Name
  Autocalculate;                          !- Volume {m3}

OS:Surface,
  {31b80020-f257-4c20-a67a-014c08a7b555}, !- Handle
  Perimeter_mid_ZN_2_Wall_North,          !- Name
  Wall,                                   !- Surface Type
  ,                                       !- Construction Name
  {7e340c82-5b29-41c5-9ccd-9a28338e4ae1}, !- Space Name
  Surface,                                !- Outside Boundary Condition
  {7d128996-bb86-43c1-9e95-79c15bdeb256}, !- Outside Boundary Condition Object
  NoSun,                                  !- Sun Exposure
  NoWind,                                 !- Wind Exposure
  ,                                       !- View Factor to Ground
  ,                                       !- Number of Vertices
  4.5732, 48.7381, 2.744,                 !- X,Y,Z Vertex 1 {m}
  4.5732, 48.7381, 0,                     !- X,Y,Z Vertex 2 {m}
  0, 44.165, 0,                           !- X,Y,Z Vertex 3 {m}
  0, 44.165, 2.744;                       !- X,Y,Z Vertex 4 {m}

OS:Surface,
  {d0a59f37-e292-440f-8ae6-2a115b14f8a0}, !- Handle
  Core_bot_ZN_5_Wall_West,                !- Name
  Wall,                                   !- Surface Type
  ,                                       !- Construction Name
  {252d5491-4adf-40c7-b2c2-5f3c366963cc}, !- Space Name
  Surface,                                !- Outside Boundary Condition
  {1c745e8a-b021-4943-9de9-ab769a4e89fa}, !- Outside Boundary Condition Object
  NoSun,                                  !- Sun Exposure
  NoWind,                                 !- Wind Exposure
  0,                                      !- View Factor to Ground
  ,                                       !- Number of Vertices
  0, 39.5918, 2.744,                      !- X,Y,Z Vertex 1 {m}
  0, 39.5918, 0,                          !- X,Y,Z Vertex 2 {m}
  0, 0, 0,                                !- X,Y,Z Vertex 3 {m}
  0, 0, 2.744;                            !- X,Y,Z Vertex 4 {m}

OS:Surface,
  {b0fa1412-f530-4105-9167-603b3bfe9e52}, !- Handle
  Perimeter_bot_ZN_1_Floor-PPAutoCreateOther, !- Name
  RoofCeiling,                            !- Surface Type
  ,                                       !- Construction Name
  {5eccad29-dadd-43c0-a26c-31e00e7702be}, !- Space Name
  Surface,                                !- Outside Boundary Condition
  {3aea0e62-e36b-4705-b26b-131867a7071a}, !- Outside Boundary Condition Object
  NoSun,                                  !- Sun Exposure
  NoWind,                                 !- Wind Exposure
  0,                                      !- View Factor to Ground
  ,                                       !- Number of Vertices
  57.0278, 0, 2.439,                      !- X,Y,Z Vertex 1 {m}
  52.4546, 4.5732, 2.439,                 !- X,Y,Z Vertex 2 {m}
  0, 4.5732, 2.439,                       !- X,Y,Z Vertex 3 {m}
  0, 0, 2.439;                            !- X,Y,Z Vertex 4 {m}

OS:Surface,
  {6df794e9-3c6a-4697-83e2-2f096051ecf5}, !- Handle
  Basement_Floor,                         !- Name
  Floor,                                  !- Surface Type
  {de67da4f-1b56-45cd-a9bf-4e55d29ee3c4}, !- Construction Name
  {5eccad29-dadd-43c0-a26c-31e00e7702be}, !- Space Name
  Foundation,                             !- Outside Boundary Condition
  {33872eff-a21b-4ac8-8fef-7359f60454d9}, !- Outside Boundary Condition Object
  NoSun,                                  !- Sun Exposure
  NoWind,                                 !- Wind Exposure
  0,                                      !- View Factor to Ground
  ,                                       !- Number of Vertices
  57.0278, 48.7381, 0,                    !- X,Y,Z Vertex 1 {m}
  57.0278, 0, 0,                          !- X,Y,Z Vertex 2 {m}
  0, 0, 0,                                !- X,Y,Z Vertex 3 {m}
  0, 48.7381, 0;                          !- X,Y,Z Vertex 4 {m}

OS:Surface,
  {385ea05a-ccee-44ea-89e0-24075e0c0427}, !- Handle
  DataCenter_basement_ZN_6-Perimeter_bot_ZN_1-PPAutoCreateOther, !- Name
  Floor,                                  !- Surface Type
  ,                                       !- Construction Name
  {2ff425f9-c1f4-46e4-a7b6-d29a1f6709fc}, !- Space Name
  Surface,                                !- Outside Boundary Condition
  {57a08851-5347-4ac4-ae3f-e27199583b27}, !- Outside Boundary Condition Object
  NoSun,                                  !- Sun Exposure
  NoWind,                                 !- Wind Exposure
  0,                                      !- View Factor to Ground
  ,                                       !- Number of Vertices
  16.0782, 4.5732, 0,                     !- X,Y,Z Vertex 1 {m}
  16.0782, 0, 0,                          !- X,Y,Z Vertex 2 {m}
  0, 0, 0,                                !- X,Y,Z Vertex 3 {m}
  4.5732, 4.5732, 0;                      !- X,Y,Z Vertex 4 {m}

OS:Surface,
  {35256534-7dcb-487c-8754-2698ab3fb091}, !- Handle
  Core_bot_ZN_5_Wall_North-PPAutoCreateOther, !- Name
  Wall,                                   !- Surface Type
  ,                                       !- Construction Name
  {d59c9de6-0b6a-4003-83b3-9abbb0fc11e6}, !- Space Name
  Surface,                                !- Outside Boundary Condition
  {4f514d6b-5f3a-4773-a294-0e317f993fc9}, !- Outside Boundary Condition Object
  NoSun,                                  !- Sun Exposure
  NoWind,                                 !- Wind Exposure
  ,                                       !- View Factor to Ground
  ,                                       !- Number of Vertices
  5.4876, 0, 2.744,                       !- X,Y,Z Vertex 1 {m}
  5.4876, 0, 0,                           !- X,Y,Z Vertex 2 {m}
  68.534, 0, 0,                           !- X,Y,Z Vertex 3 {m}
  68.534, 0, 2.744;                       !- X,Y,Z Vertex 4 {m}

OS:Surface,
  {e657e933-2e28-4a34-8851-c3e8ba75a417}, !- Handle
  DataCenter_mid_ZN_6_Wall_South,         !- Name
  Wall,                                   !- Surface Type
  ,                                       !- Construction Name
  {2c6ae4f5-d65e-4636-8802-7d13d7260722}, !- Space Name
  Surface,                                !- Outside Boundary Condition
  {602b1d84-44b4-43f4-800e-5a114c124ad1}, !- Outside Boundary Condition Object
  NoSun,                                  !- Sun Exposure
  NoWind,                                 !- Wind Exposure
  0,                                      !- View Factor to Ground
  ,                                       !- Number of Vertices
  0, 0, 2.744,                            !- X,Y,Z Vertex 1 {m}
  0, 0, 0,                                !- X,Y,Z Vertex 2 {m}
  0.9144, 0, 0,                           !- X,Y,Z Vertex 3 {m}
  0.9144, 0, 2.744;                       !- X,Y,Z Vertex 4 {m}

OS:Surface,
  {80e41be6-5e15-4045-aa9d-879ab2ec874d}, !- Handle
  Perimeter_bot_ZN_2_Wall_North,          !- Name
  Wall,                                   !- Surface Type
  ,                                       !- Construction Name
  {fa1660de-671b-44b7-b087-bcff3e03cad4}, !- Space Name
  Surface,                                !- Outside Boundary Condition
  {f4f193f2-ae84-4086-8993-59fec58adcc9}, !- Outside Boundary Condition Object
  NoSun,                                  !- Sun Exposure
  NoWind,                                 !- Wind Exposure
  ,                                       !- View Factor to Ground
  ,                                       !- Number of Vertices
  4.5732, 48.7381, 2.744,                 !- X,Y,Z Vertex 1 {m}
  4.5732, 48.7381, 0,                     !- X,Y,Z Vertex 2 {m}
  0, 44.165, 0,                           !- X,Y,Z Vertex 3 {m}
  0, 44.165, 2.744;                       !- X,Y,Z Vertex 4 {m}

OS:Connection,
  {2d88ca0e-656f-4869-98cb-4a906ba58d1b}, !- Handle
  ,                                       !- Source Object
  11,                                     !- Outlet Port
  ,                                       !- Target Object
  2;                                      !- Inlet Port

OS:Space,
  {fa1660de-671b-44b7-b087-bcff3e03cad4}, !- Handle
  Perimeter_bot_ZN_2,                     !- Name
  {cbc1800d-3058-4bca-9be8-d37e6a76ff55}, !- Space Type Name
  ,                                       !- Default Construction Set Name
  ,                                       !- Default Schedule Set Name
  -0,                                     !- Direction of Relative North {deg}
  68.534,                                 !- X Origin {m}
  0,                                      !- Y Origin {m}
  0,                                      !- Z Origin {m}
  {1bf14578-5317-4bb7-bb78-67bfc4cef2af}, !- Building Story Name
  {621d2acd-47ef-4367-972b-99faaab8da43}, !- Thermal Zone Name
  Yes,                                    !- Part of Total Floor Area
  ,                                       !- Design Specification Outdoor Air Object Name
  ,                                       !- Building Unit Name
  Autocalculate;                          !- Volume {m3}

OS:Surface,
  {17c5ab76-a5f2-4433-b414-301e76e8929c}, !- Handle
  Perimeter_top_ZN_2_Wall_North-PPAutoCreateOther, !- Name
  Wall,                                   !- Surface Type
  ,                                       !- Construction Name
  {bf3e28c0-5c36-4ba7-8f6b-40c5c095b5f0}, !- Space Name
  Surface,                                !- Outside Boundary Condition
  {14f33320-6d6a-4312-94a9-694259fd4aa8}, !- Outside Boundary Condition Object
  NoSun,                                  !- Sun Exposure
  NoWind,                                 !- Wind Exposure
  ,                                       !- View Factor to Ground
  ,                                       !- Number of Vertices
  68.534, 0, 2.744,                       !- X,Y,Z Vertex 1 {m}
  68.534, 0, 0,                           !- X,Y,Z Vertex 2 {m}
  73.1072, 4.5731, 0,                     !- X,Y,Z Vertex 3 {m}
  73.1072, 4.5731, 2.744;                 !- X,Y,Z Vertex 4 {m}

OS:Surface,
  {fc24aad0-a31b-4d7e-bbaf-fc0154c26282}, !- Handle
  Perimeter_bot_ZN_4_Ceiling,             !- Name
  RoofCeiling,                            !- Surface Type
  ,                                       !- Construction Name
  {e00bf7aa-0083-44aa-b7cd-bd6b6b225b7a}, !- Space Name
  Surface,                                !- Outside Boundary Condition
  {15c00337-961a-40e1-8e4f-b27df8fa3a95}, !- Outside Boundary Condition Object
  NoSun,                                  !- Sun Exposure
  NoWind,                                 !- Wind Exposure
  ,                                       !- View Factor to Ground
  ,                                       !- Number of Vertices
  0, 0, 2.744,                            !- X,Y,Z Vertex 1 {m}
  4.5732, 4.5732, 2.744,                  !- X,Y,Z Vertex 2 {m}
  4.5732, 44.165, 2.744,                  !- X,Y,Z Vertex 3 {m}
  0, 48.7381, 2.744;                      !- X,Y,Z Vertex 4 {m}

OS:Connection,
  {db2aad46-61bf-4d29-b6f3-49e6d1a68cc1}, !- Handle
  ,                                       !- Source Object
  11,                                     !- Outlet Port
  ,                                       !- Target Object
  2;                                      !- Inlet Port

OS:Space,
  {e00bf7aa-0083-44aa-b7cd-bd6b6b225b7a}, !- Handle
  Perimeter_bot_ZN_4,                     !- Name
  {cbc1800d-3058-4bca-9be8-d37e6a76ff55}, !- Space Type Name
  ,                                       !- Default Construction Set Name
  ,                                       !- Default Schedule Set Name
  -0,                                     !- Direction of Relative North {deg}
  0,                                      !- X Origin {m}
  0,                                      !- Y Origin {m}
  0,                                      !- Z Origin {m}
  {1bf14578-5317-4bb7-bb78-67bfc4cef2af}, !- Building Story Name
  {7464e99a-f142-47e5-947a-99eb4d4e39e6}, !- Thermal Zone Name
  Yes,                                    !- Part of Total Floor Area
  ,                                       !- Design Specification Outdoor Air Object Name
  ,                                       !- Building Unit Name
  Autocalculate;                          !- Volume {m3}

OS:Surface,
  {15c00337-961a-40e1-8e4f-b27df8fa3a95}, !- Handle
  Perimeter_bot_ZN_4_Ceiling Reversed,    !- Name
  Floor,                                  !- Surface Type
  ,                                       !- Construction Name
  {b30407eb-ffd6-40ad-a549-5d1cfee1d345}, !- Space Name
  Surface,                                !- Outside Boundary Condition
  {fc24aad0-a31b-4d7e-bbaf-fc0154c26282}, !- Outside Boundary Condition Object
  NoSun,                                  !- Sun Exposure
  NoWind,                                 !- Wind Exposure
  ,                                       !- View Factor to Ground
  ,                                       !- Number of Vertices
  0, 48.7381, 0,                          !- X,Y,Z Vertex 1 {m}
  4.5732, 44.165, 0,                      !- X,Y,Z Vertex 2 {m}
  4.5732, 4.5732, 0,                      !- X,Y,Z Vertex 3 {m}
  0, 0, 0;                                !- X,Y,Z Vertex 4 {m}

OS:Surface,
  {07bf6fef-804b-41f5-be4e-454ef34836c2}, !- Handle
  Perimeter_mid_ZN_4_Wall_South-PPAutoCreateOther, !- Name
  Wall,                                   !- Surface Type
  ,                                       !- Construction Name
  {fbcda114-4a6f-4d17-ba38-7d71c7b8bbff}, !- Space Name
  Surface,                                !- Outside Boundary Condition
  {01cd8577-649b-4433-97f2-77580c653d33}, !- Outside Boundary Condition Object
  NoSun,                                  !- Sun Exposure
  NoWind,                                 !- Wind Exposure
  ,                                       !- View Factor to Ground
  ,                                       !- Number of Vertices
  4.5732, 4.5732, 2.744,                  !- X,Y,Z Vertex 1 {m}
  4.5732, 4.5732, 0,                      !- X,Y,Z Vertex 2 {m}
  0, 0, 0,                                !- X,Y,Z Vertex 3 {m}
  0, 0, 2.744;                            !- X,Y,Z Vertex 4 {m}

OS:Surface,
  {bc756393-0073-4502-8f6d-e63a633caa70}, !- Handle
  Perimeter_bot_ZN_4_Wall_South,          !- Name
  Wall,                                   !- Surface Type
  ,                                       !- Construction Name
  {e00bf7aa-0083-44aa-b7cd-bd6b6b225b7a}, !- Space Name
  Surface,                                !- Outside Boundary Condition
  {4ac6ea44-6fad-4d22-9242-726039b5b7bb}, !- Outside Boundary Condition Object
  NoSun,                                  !- Sun Exposure
  NoWind,                                 !- Wind Exposure
  ,                                       !- View Factor to Ground
  ,                                       !- Number of Vertices
  0, 0, 2.744,                            !- X,Y,Z Vertex 1 {m}
  0, 0, 0,                                !- X,Y,Z Vertex 2 {m}
  4.5732, 4.5732, 0,                      !- X,Y,Z Vertex 3 {m}
  4.5732, 4.5732, 2.744;                  !- X,Y,Z Vertex 4 {m}

OS:Surface,
  {30c6ef8c-d12f-4a7f-bd36-3ca441910b75}, !- Handle
  TopFloor_Plenum_Wall_West,              !- Name
  Wall,                                   !- Surface Type
  ,                                       !- Construction Name
  {d90bdd43-239b-4cf7-ae27-6c4e6b492a91}, !- Space Name
  Outdoors,                               !- Outside Boundary Condition
  ,                                       !- Outside Boundary Condition Object
  SunExposed,                             !- Sun Exposure
  WindExposed,                            !- Wind Exposure
  ,                                       !- View Factor to Ground
  ,                                       !- Number of Vertices
  0, 48.7381, 1.2192,                     !- X,Y,Z Vertex 1 {m}
  0, 48.7381, 0,                          !- X,Y,Z Vertex 2 {m}
  0, 0, 0,                                !- X,Y,Z Vertex 3 {m}
  0, 0, 1.2192;                           !- X,Y,Z Vertex 4 {m}

OS:Surface,
  {dfc35d03-b0cb-4f19-a1bd-09af3cd6142f}, !- Handle
  DataCenter_basement_ZN_6_Floor,         !- Name
  Floor,                                  !- Surface Type
  {de67da4f-1b56-45cd-a9bf-4e55d29ee3c4}, !- Construction Name
  {c7138cc2-589b-4e88-aa9b-6561b087ce28}, !- Space Name
  Foundation,                             !- Outside Boundary Condition
  {33872eff-a21b-4ac8-8fef-7359f60454d9}, !- Outside Boundary Condition Object
  NoSun,                                  !- Sun Exposure
  NoWind,                                 !- Wind Exposure
  0,                                      !- View Factor to Ground
  ,                                       !- Number of Vertices
  16.0794, 48.7381, 0,                    !- X,Y,Z Vertex 1 {m}
  16.0794, 0, 0,                          !- X,Y,Z Vertex 2 {m}
  0, 0, 0,                                !- X,Y,Z Vertex 3 {m}
  0, 48.7381, 0;                          !- X,Y,Z Vertex 4 {m}

OS:Surface,
  {1672b55a-25bd-4581-ad38-f3dee5d19303}, !- Handle
  GroundFloor_Plenum_Ceiling,             !- Name
  RoofCeiling,                            !- Surface Type
  {698186c8-2099-4c48-be16-77de4cd8bec2}, !- Construction Name
  {b30407eb-ffd6-40ad-a549-5d1cfee1d345}, !- Space Name
  Adiabatic,                              !- Outside Boundary Condition
  ,                                       !- Outside Boundary Condition Object
  NoSun,                                  !- Sun Exposure
  NoWind,                                 !- Wind Exposure
  ,                                       !- View Factor to Ground
  ,                                       !- Number of Vertices
  73.1072, 0, 1.2192,                     !- X,Y,Z Vertex 1 {m}
  73.1072, 48.7381, 1.2192,               !- X,Y,Z Vertex 2 {m}
  0, 48.7381, 1.2192,                     !- X,Y,Z Vertex 3 {m}
  0, 0, 1.2192;                           !- X,Y,Z Vertex 4 {m}

OS:Surface,
  {58bb2539-a045-44d3-bfe6-0813d89f521a}, !- Handle
  Perimeter_top_ZN_2_Wall_East,           !- Name
  Wall,                                   !- Surface Type
  ,                                       !- Construction Name
  {fef7f608-2812-417a-a2ec-fcc3d22db84e}, !- Space Name
  Outdoors,                               !- Outside Boundary Condition
  ,                                       !- Outside Boundary Condition Object
  SunExposed,                             !- Sun Exposure
  WindExposed,                            !- Wind Exposure
  ,                                       !- View Factor to Ground
  ,                                       !- Number of Vertices
  4.5732, 0, 2.744,                       !- X,Y,Z Vertex 1 {m}
  4.5732, 0, 0,                           !- X,Y,Z Vertex 2 {m}
  4.5732, 48.7381, 0,                     !- X,Y,Z Vertex 3 {m}
  4.5732, 48.7381, 2.744;                 !- X,Y,Z Vertex 4 {m}

OS:Surface,
  {602b1d84-44b4-43f4-800e-5a114c124ad1}, !- Handle
  DataCenter_mid_ZN_6_Wall_South-PPAutoCreateOther, !- Name
  Wall,                                   !- Surface Type
  ,                                       !- Construction Name
  {fbcda114-4a6f-4d17-ba38-7d71c7b8bbff}, !- Space Name
  Surface,                                !- Outside Boundary Condition
  {e657e933-2e28-4a34-8851-c3e8ba75a417}, !- Outside Boundary Condition Object
  NoSun,                                  !- Sun Exposure
  NoWind,                                 !- Wind Exposure
  0,                                      !- View Factor to Ground
  ,                                       !- Number of Vertices
  5.4876, 4.5732, 2.744,                  !- X,Y,Z Vertex 1 {m}
  5.4876, 4.5732, 0,                      !- X,Y,Z Vertex 2 {m}
  4.5732, 4.5732, 0,                      !- X,Y,Z Vertex 3 {m}
  4.5732, 4.5732, 2.744;                  !- X,Y,Z Vertex 4 {m}

OS:Surface,
  {e76036e0-22b6-40c7-bea7-47386fd2f9d6}, !- Handle
  Core_bot_ZN_5_Wall_East,                !- Name
  Wall,                                   !- Surface Type
  ,                                       !- Construction Name
  {252d5491-4adf-40c7-b2c2-5f3c366963cc}, !- Space Name
  Surface,                                !- Outside Boundary Condition
  {3a01545e-79a9-472e-a218-6d489b8687fa}, !- Outside Boundary Condition Object
  NoSun,                                  !- Sun Exposure
  NoWind,                                 !- Wind Exposure
  ,                                       !- View Factor to Ground
  ,                                       !- Number of Vertices
  63.0464, 0, 2.744,                      !- X,Y,Z Vertex 1 {m}
  63.0464, 0, 0,                          !- X,Y,Z Vertex 2 {m}
  63.0464, 39.5918, 0,                    !- X,Y,Z Vertex 3 {m}
  63.0464, 39.5918, 2.744;                !- X,Y,Z Vertex 4 {m}

OS:Surface,
  {850dcceb-5334-45f2-850b-04b1d956bc1d}, !- Handle
  Perimeter_mid_ZN_4_Wall_West,           !- Name
  Wall,                                   !- Surface Type
  ,                                       !- Construction Name
  {fa6dd353-dcdd-40da-857d-4470740aa0d0}, !- Space Name
  Outdoors,                               !- Outside Boundary Condition
  ,                                       !- Outside Boundary Condition Object
  SunExposed,                             !- Sun Exposure
  WindExposed,                            !- Wind Exposure
[...]
  DivisorOnly,                            !- Normalization Method
  0.5,                                    !- Normalization Divisor
  0,                                      !- Minimum Output {BasedOnField A5}
  10,                                     !- Maximum Output {BasedOnField A5}
  Dimensionless,                          !- Output Unit Type
  ,                                       !- External File Name
  ,                                       !- External File Column Number
  ,                                       !- External File Starting Row Number
  0.5,                                    !- Output Value 1 {BasedOnField A5}
  0.5;                                    !- Output Value 2 {BasedOnField A5}

OS:ModelObjectList,
  {cb559209-5c54-42cf-909a-9f43a1aab0ae}, !- Handle
  Table Lookup 1 Independent Variable List 27, !- Name
  {646f07ea-4750-471b-ae16-97ef94c2dc88}; !- Model Object 1

OS:Table:Lookup,
  {2c1d3f33-9b1a-490f-9ffc-a266ad8b0c33}, !- Handle
  sys_1|doas|shr>none|sc>ccashp|sh>ccashp|ssf>cv|zh>vrf|zc>vrf|srf>none| 2 ERV_SensHeatEff 1, !- Name
  {b15a737b-bf5d-4ac8-9949-479eeb886c04}, !- Independent Variable List Name
  DivisorOnly,                            !- Normalization Method
  0.5,                                    !- Normalization Divisor
  0,                                      !- Minimum Output {BasedOnField A5}
  10,                                     !- Maximum Output {BasedOnField A5}
  Dimensionless,                          !- Output Unit Type
  ,                                       !- External File Name
  ,                                       !- External File Column Number
  ,                                       !- External File Starting Row Number
  0.5,                                    !- Output Value 1 {BasedOnField A5}
  0.5;                                    !- Output Value 2 {BasedOnField A5}

OS:ModelObjectList,
  {b15a737b-bf5d-4ac8-9949-479eeb886c04}, !- Handle
  Table Lookup 1 Independent Variable List 28, !- Name
  {5e607d9d-1571-44c7-82e7-2a1bc4eeb546}; !- Model Object 1

OS:Table:Lookup,
  {65f28ea2-0ff7-491f-a0d9-24f7e17e0a36}, !- Handle
  sys_1|doas|shr>none|sc>ccashp|sh>ccashp|ssf>cv|zh>vrf|zc>vrf|srf>none| 2 ERV_LatHeatEff 1, !- Name
  {2bbb84df-3694-44e8-aa8a-aa39945b1c10}, !- Independent Variable List Name
  DivisorOnly,                            !- Normalization Method
  0.5,                                    !- Normalization Divisor
  0,                                      !- Minimum Output {BasedOnField A5}
  10,                                     !- Maximum Output {BasedOnField A5}
  Dimensionless,                          !- Output Unit Type
  ,                                       !- External File Name
  ,                                       !- External File Column Number
  ,                                       !- External File Starting Row Number
  0.5,                                    !- Output Value 1 {BasedOnField A5}
  0.5;                                    !- Output Value 2 {BasedOnField A5}

OS:ModelObjectList,
  {2bbb84df-3694-44e8-aa8a-aa39945b1c10}, !- Handle
  Table Lookup 1 Independent Variable List 29, !- Name
  {2beedac6-bcb3-444b-9e11-6c81c17df69f}; !- Model Object 1

OS:Table:Lookup,
  {a7530b49-7370-408e-b6b8-2a51429de7ee}, !- Handle
  sys_1|doas|shr>none|sc>ccashp|sh>ccashp|ssf>cv|zh>vrf|zc>vrf|srf>none| 2 ERV_SensCoolEff 1, !- Name
  {9cc826cf-cae4-480b-9a14-368a129f1ccb}, !- Independent Variable List Name
  DivisorOnly,                            !- Normalization Method
  0.5,                                    !- Normalization Divisor
  0,                                      !- Minimum Output {BasedOnField A5}
  10,                                     !- Maximum Output {BasedOnField A5}
  Dimensionless,                          !- Output Unit Type
  ,                                       !- External File Name
  ,                                       !- External File Column Number
  ,                                       !- External File Starting Row Number
  0.5,                                    !- Output Value 1 {BasedOnField A5}
  0.5;                                    !- Output Value 2 {BasedOnField A5}

OS:ModelObjectList,
  {9cc826cf-cae4-480b-9a14-368a129f1ccb}, !- Handle
  Table Lookup 1 Independent Variable List 30, !- Name
  {33866405-1235-4876-b614-664cab2b9eeb}; !- Model Object 1

OS:Table:Lookup,
  {afd8eabd-b294-47b8-8641-5512e29bcea6}, !- Handle
  sys_1|doas|shr>none|sc>ccashp|sh>ccashp|ssf>cv|zh>vrf|zc>vrf|srf>none| 2 ERV_LatCoolEff 1, !- Name
  {e13ccd8d-68bc-4e22-9199-2a91d7d5d2f3}, !- Independent Variable List Name
  DivisorOnly,                            !- Normalization Method
  0.5,                                    !- Normalization Divisor
  0,                                      !- Minimum Output {BasedOnField A5}
  10,                                     !- Maximum Output {BasedOnField A5}
  Dimensionless,                          !- Output Unit Type
  ,                                       !- External File Name
  ,                                       !- External File Column Number
  ,                                       !- External File Starting Row Number
  0.5,                                    !- Output Value 1 {BasedOnField A5}
  0.5;                                    !- Output Value 2 {BasedOnField A5}

OS:ModelObjectList,
  {e13ccd8d-68bc-4e22-9199-2a91d7d5d2f3}, !- Handle
  Table Lookup 1 Independent Variable List 31, !- Name
  {32afe961-0631-41a6-aeae-0e1a1f369b63}; !- Model Object 1

OS:Table:Lookup,
  {be1378c0-8fea-4096-bde0-676bb4fa0920}, !- Handle
  sys_1|doas|shr>none|sc>ccashp|sh>ccashp|ssf>cv|zh>vrf|zc>vrf|srf>none| 1 ERV_SensHeatEff 1, !- Name
  {a7bbbb3e-8a66-4e1c-b6b7-1806c569c03b}, !- Independent Variable List Name
  DivisorOnly,                            !- Normalization Method
  0.5,                                    !- Normalization Divisor
  0,                                      !- Minimum Output {BasedOnField A5}
  10,                                     !- Maximum Output {BasedOnField A5}
  Dimensionless,                          !- Output Unit Type
  ,                                       !- External File Name
  ,                                       !- External File Column Number
  ,                                       !- External File Starting Row Number
  0.5,                                    !- Output Value 1 {BasedOnField A5}
  0.5;                                    !- Output Value 2 {BasedOnField A5}

OS:ModelObjectList,
  {a7bbbb3e-8a66-4e1c-b6b7-1806c569c03b}, !- Handle
  Table Lookup 1 Independent Variable List 32, !- Name
  {45e54a98-5855-4146-9286-0a05e2ce2c7a}; !- Model Object 1

OS:Table:Lookup,
  {64b8a5c5-245d-4657-b490-00fd0fc63eba}, !- Handle
  sys_1|doas|shr>none|sc>ccashp|sh>ccashp|ssf>cv|zh>vrf|zc>vrf|srf>none| 1 ERV_LatHeatEff 1, !- Name
  {4f041f5b-42d2-4245-a928-e28827757889}, !- Independent Variable List Name
  DivisorOnly,                            !- Normalization Method
  0.5,                                    !- Normalization Divisor
  0,                                      !- Minimum Output {BasedOnField A5}
  10,                                     !- Maximum Output {BasedOnField A5}
  Dimensionless,                          !- Output Unit Type
  ,                                       !- External File Name
  ,                                       !- External File Column Number
  ,                                       !- External File Starting Row Number
  0.5,                                    !- Output Value 1 {BasedOnField A5}
  0.5;                                    !- Output Value 2 {BasedOnField A5}

OS:ModelObjectList,
  {4f041f5b-42d2-4245-a928-e28827757889}, !- Handle
  Table Lookup 1 Independent Variable List 33, !- Name
  {1b74de77-b2c5-4201-82ef-3e7929fc879f}; !- Model Object 1

OS:Table:Lookup,
  {bb823c73-2717-4d19-951b-8dbfec080a3f}, !- Handle
  sys_1|doas|shr>none|sc>ccashp|sh>ccashp|ssf>cv|zh>vrf|zc>vrf|srf>none| 1 ERV_SensCoolEff 1, !- Name
  {3c25e370-2647-4b5e-9c0b-314a76f49c85}, !- Independent Variable List Name
  DivisorOnly,                            !- Normalization Method
  0.5,                                    !- Normalization Divisor
  0,                                      !- Minimum Output {BasedOnField A5}
  10,                                     !- Maximum Output {BasedOnField A5}
  Dimensionless,                          !- Output Unit Type
  ,                                       !- External File Name
  ,                                       !- External File Column Number
  ,                                       !- External File Starting Row Number
  0.5,                                    !- Output Value 1 {BasedOnField A5}
  0.5;                                    !- Output Value 2 {BasedOnField A5}

OS:ModelObjectList,
  {3c25e370-2647-4b5e-9c0b-314a76f49c85}, !- Handle
  Table Lookup 1 Independent Variable List 34, !- Name
  {df7e4058-45da-460a-add7-e738a9c807ba}; !- Model Object 1

OS:Table:Lookup,
  {c2b0b023-f31e-419e-a962-567b86d6f3e3}, !- Handle
  sys_1|doas|shr>none|sc>ccashp|sh>ccashp|ssf>cv|zh>vrf|zc>vrf|srf>none| 1 ERV_LatCoolEff 1, !- Name
  {d777d4c5-c293-475d-a944-351e0476931a}, !- Independent Variable List Name
  DivisorOnly,                            !- Normalization Method
  0.5,                                    !- Normalization Divisor
  0,                                      !- Minimum Output {BasedOnField A5}
  10,                                     !- Maximum Output {BasedOnField A5}
  Dimensionless,                          !- Output Unit Type
  ,                                       !- External File Name
  ,                                       !- External File Column Number
  ,                                       !- External File Starting Row Number
  0.5,                                    !- Output Value 1 {BasedOnField A5}
  0.5;                                    !- Output Value 2 {BasedOnField A5}

OS:ModelObjectList,
  {d777d4c5-c293-475d-a944-351e0476931a}, !- Handle
  Table Lookup 1 Independent Variable List 35, !- Name
  {4bb8e931-5534-4d3a-8e2f-1ef32a1e37db}; !- Model Object 1

OS:Table:Lookup,
  {89add5f8-aa7a-469c-b3a8-4742b72848c1}, !- Handle
  sys_1|doas|shr>none|sc>ccashp|sh>ccashp|ssf>cv|zh>vrf|zc>vrf|srf>none| 3 ERV_SensHeatEff 1, !- Name
  {2b50e50b-8d2e-4da5-ab7f-9efbc72146bb}, !- Independent Variable List Name
  DivisorOnly,                            !- Normalization Method
  0.5,                                    !- Normalization Divisor
  0,                                      !- Minimum Output {BasedOnField A5}
  10,                                     !- Maximum Output {BasedOnField A5}
  Dimensionless,                          !- Output Unit Type
  ,                                       !- External File Name
  ,                                       !- External File Column Number
  ,                                       !- External File Starting Row Number
  0.5,                                    !- Output Value 1 {BasedOnField A5}
  0.5;                                    !- Output Value 2 {BasedOnField A5}

OS:ModelObjectList,
  {2b50e50b-8d2e-4da5-ab7f-9efbc72146bb}, !- Handle
  Table Lookup 1 Independent Variable List 36, !- Name
  {e1e2cd16-cd0f-4cdb-afcd-f23bb73fa9dd}; !- Model Object 1

OS:Table:Lookup,
  {3e9347f6-764b-4a65-bbe5-4b3cc4b021ae}, !- Handle
  sys_1|doas|shr>none|sc>ccashp|sh>ccashp|ssf>cv|zh>vrf|zc>vrf|srf>none| 3 ERV_LatHeatEff 1, !- Name
  {2ac6b3fc-3a79-4024-bbdf-dbe834307e30}, !- Independent Variable List Name
  DivisorOnly,                            !- Normalization Method
  0.5,                                    !- Normalization Divisor
  0,                                      !- Minimum Output {BasedOnField A5}
  10,                                     !- Maximum Output {BasedOnField A5}
  Dimensionless,                          !- Output Unit Type
  ,                                       !- External File Name
  ,                                       !- External File Column Number
  ,                                       !- External File Starting Row Number
  0.5,                                    !- Output Value 1 {BasedOnField A5}
  0.5;                                    !- Output Value 2 {BasedOnField A5}

OS:ModelObjectList,
  {2ac6b3fc-3a79-4024-bbdf-dbe834307e30}, !- Handle
  Table Lookup 1 Independent Variable List 37, !- Name
  {3abc8177-4f86-4a03-9ac8-75782d7d9ea7}; !- Model Object 1

OS:Table:Lookup,
  {ed3452af-2db2-4223-8da1-eab64d002e89}, !- Handle
  sys_1|doas|shr>none|sc>ccashp|sh>ccashp|ssf>cv|zh>vrf|zc>vrf|srf>none| 3 ERV_SensCoolEff 1, !- Name
  {b7d45ff3-1dd7-4470-b142-5548163c8bf1}, !- Independent Variable List Name
  DivisorOnly,                            !- Normalization Method
  0.5,                                    !- Normalization Divisor
  0,                                      !- Minimum Output {BasedOnField A5}
  10,                                     !- Maximum Output {BasedOnField A5}
  Dimensionless,                          !- Output Unit Type
  ,                                       !- External File Name
  ,                                       !- External File Column Number
  ,                                       !- External File Starting Row Number
  0.5,                                    !- Output Value 1 {BasedOnField A5}
  0.5;                                    !- Output Value 2 {BasedOnField A5}

OS:ModelObjectList,
  {b7d45ff3-1dd7-4470-b142-5548163c8bf1}, !- Handle
  Table Lookup 1 Independent Variable List 38, !- Name
  {0a59aaf6-f94a-44c7-981b-d8d4fc146928}; !- Model Object 1

OS:Table:Lookup,
  {b595bc69-02f2-4df3-adb0-e7656e0433ab}, !- Handle
  sys_1|doas|shr>none|sc>ccashp|sh>ccashp|ssf>cv|zh>vrf|zc>vrf|srf>none| 3 ERV_LatCoolEff 1, !- Name
  {bacdc542-9ea3-40e8-8c78-a7aebd085c7b}, !- Independent Variable List Name
  DivisorOnly,                            !- Normalization Method
  0.5,                                    !- Normalization Divisor
  0,                                      !- Minimum Output {BasedOnField A5}
  10,                                     !- Maximum Output {BasedOnField A5}
  Dimensionless,                          !- Output Unit Type
  ,                                       !- External File Name
  ,                                       !- External File Column Number
  ,                                       !- External File Starting Row Number
  0.5,                                    !- Output Value 1 {BasedOnField A5}
  0.5;                                    !- Output Value 2 {BasedOnField A5}

OS:ModelObjectList,
  {bacdc542-9ea3-40e8-8c78-a7aebd085c7b}, !- Handle
  Table Lookup 1 Independent Variable List 39, !- Name
  {ce3e92e3-0d27-4c75-9636-53daa4b271fc}; !- Model Object 1

OS:Table:Lookup,
  {cff790a9-10ab-484f-b687-5e45c350d15b}, !- Handle
  sys_1|doas|shr>none|sc>ccashp|sh>ccashp|ssf>cv|zh>vrf|zc>vrf|srf>none| ERV_SensHeatEff 1, !- Name
  {0164939c-f20d-4a81-a7bf-e84a2c2a709f}, !- Independent Variable List Name
  DivisorOnly,                            !- Normalization Method
  0.5,                                    !- Normalization Divisor
  0,                                      !- Minimum Output {BasedOnField A5}
  10,                                     !- Maximum Output {BasedOnField A5}
  Dimensionless,                          !- Output Unit Type
  ,                                       !- External File Name
  ,                                       !- External File Column Number
  ,                                       !- External File Starting Row Number
  0.5,                                    !- Output Value 1 {BasedOnField A5}
  0.5;                                    !- Output Value 2 {BasedOnField A5}

OS:ModelObjectList,
  {0164939c-f20d-4a81-a7bf-e84a2c2a709f}, !- Handle
  Table Lookup 1 Independent Variable List 40, !- Name
  {2aa75bd6-1846-4231-84d3-45976be7e2c5}; !- Model Object 1

OS:Table:Lookup,
  {2f18237b-9e8a-4b05-9b64-f9ab3024b8cf}, !- Handle
  sys_1|doas|shr>none|sc>ccashp|sh>ccashp|ssf>cv|zh>vrf|zc>vrf|srf>none| ERV_LatHeatEff 1, !- Name
  {babeb101-6e74-450f-b5cc-29e2e593f4b1}, !- Independent Variable List Name
  DivisorOnly,                            !- Normalization Method
  0.5,                                    !- Normalization Divisor
  0,                                      !- Minimum Output {BasedOnField A5}
  10,                                     !- Maximum Output {BasedOnField A5}
  Dimensionless,                          !- Output Unit Type
  ,                                       !- External File Name
  ,                                       !- External File Column Number
  ,                                       !- External File Starting Row Number
  0.5,                                    !- Output Value 1 {BasedOnField A5}
  0.5;                                    !- Output Value 2 {BasedOnField A5}

OS:ModelObjectList,
  {babeb101-6e74-450f-b5cc-29e2e593f4b1}, !- Handle
  Table Lookup 1 Independent Variable List 41, !- Name
  {b08aa479-b8b3-4db1-a190-83c78cc5d825}; !- Model Object 1

OS:Table:Lookup,
  {986cacd3-089a-4b38-b10c-3f5727420e9d}, !- Handle
  sys_1|doas|shr>none|sc>ccashp|sh>ccashp|ssf>cv|zh>vrf|zc>vrf|srf>none| ERV_SensCoolEff 1, !- Name
  {58faceea-88ab-428b-b0df-40834d4220bd}, !- Independent Variable List Name
  DivisorOnly,                            !- Normalization Method
  0.5,                                    !- Normalization Divisor
  0,                                      !- Minimum Output {BasedOnField A5}
  10,                                     !- Maximum Output {BasedOnField A5}
  Dimensionless,                          !- Output Unit Type
  ,                                       !- External File Name
  ,                                       !- External File Column Number
  ,                                       !- External File Starting Row Number
  0.5,                                    !- Output Value 1 {BasedOnField A5}
  0.5;                                    !- Output Value 2 {BasedOnField A5}

OS:ModelObjectList,
  {58faceea-88ab-428b-b0df-40834d4220bd}, !- Handle
  Table Lookup 1 Independent Variable List 42, !- Name
  {fdaddc39-d09d-4ee5-a617-c2f66a1be1fd}; !- Model Object 1

OS:Table:Lookup,
  {a898946a-e585-40df-97aa-c6fa922f76e7}, !- Handle
  sys_1|doas|shr>none|sc>ccashp|sh>ccashp|ssf>cv|zh>vrf|zc>vrf|srf>none| ERV_LatCoolEff 1, !- Name
  {48c1dbdc-1e02-4bc9-a28d-dd66110d5ff3}, !- Independent Variable List Name
  DivisorOnly,                            !- Normalization Method
  0.5,                                    !- Normalization Divisor
  0,                                      !- Minimum Output {BasedOnField A5}
  10,                                     !- Maximum Output {BasedOnField A5}
  Dimensionless,                          !- Output Unit Type
  ,                                       !- External File Name
  ,                                       !- External File Column Number
  ,                                       !- External File Starting Row Number
  0.5,                                    !- Output Value 1 {BasedOnField A5}
  0.5;                                    !- Output Value 2 {BasedOnField A5}

OS:ModelObjectList,
  {48c1dbdc-1e02-4bc9-a28d-dd66110d5ff3}, !- Handle
  Table Lookup 1 Independent Variable List 43, !- Name
  {22d54f43-3832-4e9c-aae5-cdf0d4ecf577}; !- Model Object 1

OS:Curve:Cubic,
  {51825dc2-c8e8-45a5-b887-8505a91b575e}, !- Handle
  FURNACE-EFFPLR-NECB2011,                !- Name
  0.722,                                  !- Coefficient1 Constant
  0.8211,                                 !- Coefficient2 x
  -1.0396,                                !- Coefficient3 x**2
  0.5,                                    !- Coefficient4 x**3
  0,                                      !- Minimum Value of x
  1;                                      !- Maximum Value of x

