
OS:Version,
  {6ec01596-6e0f-420f-aa2d-9fda31cde62b}, !- Handle
  3.9.0;                                  !- Version Identifier

OS:ScheduleTypeLimits,
  {6ae76667-2b0a-4d6a-8737-9a4289ff3d1f}, !- Handle
  Always On Discrete Limits,              !- Name
  0,                                      !- Lower Limit Value
  1,                                      !- Upper Limit Value
  Discrete,                               !- Numeric Type
  Availability;                           !- Unit Type

OS:Timestep,
  {b0fa043b-3e91-4705-b798-a26bbea47620}, !- Handle
  6;                                      !- Number of Timesteps per Hour

OS:Connection,
  {b742b2ef-79b6-4b4e-bc85-5c20c1c8300f}, !- Handle
  ,                                       !- Source Object
  11,                                     !- Outlet Port
  ,                                       !- Target Object
  2;                                      !- Inlet Port

OS:Space,
  {39655c19-15b3-4081-92c2-4613ae84d8e6}, !- Handle
  Zone3 Bulk Storage,                     !- Name
  {a6aa64ea-d7e8-4be2-93e7-411cbc4acca9}, !- Space Type Name
  ,                                       !- Default Construction Set Name
  ,                                       !- Default Schedule Set Name
  -0,                                     !- Direction of Relative North {deg}
  0,                                      !- X Origin {m}
  0,                                      !- Y Origin {m}
  0,                                      !- Z Origin {m}
  {db75d8b1-6332-4998-b7c2-ad46d4bbd08b}, !- Building Story Name
  {747fc8f2-ec32-4cb2-94a0-5a580687049d}, !- Thermal Zone Name
  Yes,                                    !- Part of Total Floor Area
  ,                                       !- Design Specification Outdoor Air Object Name
  ,                                       !- Building Unit Name
  Autocalculate;                          !- Volume {m3}

OS:Surface,
  {516ff702-eb03-4a25-9228-e1ad9dc5895c}, !- Handle
  Bulk Storage Roof,                      !- Name
  RoofCeiling,                            !- Surface Type
  ,                                       !- Construction Name
  {39655c19-15b3-4081-92c2-4613ae84d8e6}, !- Space Name
  Outdoors,                               !- Outside Boundary Condition
  ,                                       !- Outside Boundary Condition Object
  SunExposed,                             !- Sun Exposure
  WindExposed,                            !- Wind Exposure
  ,                                       !- View Factor to Ground
  ,                                       !- Number of Vertices
  45.7177703814647, 30.4785135876431, 8.53398380454007, !- X,Y,Z Vertex 1 {m}
  45.7177703814647, 100.579094839222, 8.53398380454007, !- X,Y,Z Vertex 2 {m}
  0, 100.579094839222, 8.53398380454007,  !- X,Y,Z Vertex 3 {m}
  0, 30.4785135876431, 8.53398380454007;  !- X,Y,Z Vertex 4 {m}

OS:WindowProperty:FrameAndDivider,
  {6bce9be8-2ab5-46ae-a571-5c172afed1ee}, !- Handle
  Skylight_Frame,                         !- Name
  0.7129,                                 !- Frame Width {m}
  ,                                       !- Frame Outside Projection {m}
  ,                                       !- Frame Inside Projection {m}
  283.91,                                 !- Frame Conductance {W/m2-K}
  1,                                      !- Ratio of Frame-Edge Glass Conductance to Center-Of-Glass Conductance
  0.7,                                    !- Frame Solar Absorptance
  0.7,                                    !- Frame Visible Absorptance
  0.9,                                    !- Frame Thermal Hemispherical Emissivity
  ,                                       !- Divider Type
  ,                                       !- Divider Width {m}
  ,                                       !- Number of Horizontal Dividers
  ,                                       !- Number of Vertical Dividers
  ,                                       !- Divider Outside Projection {m}
  ,                                       !- Divider Inside Projection {m}
  ,                                       !- Divider Conductance {W/m2-K}
  1,                                      !- Ratio of Divider-Edge Glass Conductance to Center-Of-Glass Conductance
  ,                                       !- Divider Solar Absorptance
  ,                                       !- Divider Visible Absorptance
  0.9,                                    !- Divider Thermal Hemispherical Emissivity
  ,                                       !- Outside Reveal Depth {m}
  ,                                       !- Outside Reveal Solar Absorptance
  ,                                       !- Inside Sill Depth {m}
  ,                                       !- Inside Sill Solar Absorptance
  ,                                       !- Inside Reveal Depth {m}
  ;                                       !- Inside Reveal Solar Absorptance

OS:Surface,
  {e7c4e556-9445-43b4-bfcc-f9fc21f24f21}, !- Handle
  Fine Storage Left Wall,                 !- Name
  Wall,                                   !- Surface Type
  ,                                       !- Construction Name
  {cdd6a95f-f907-4c0e-817d-962525d358d0}, !- Space Name
  Outdoors,                               !- Outside Boundary Condition
  ,                                       !- Outside Boundary Condition Object
  SunExposed,                             !- Sun Exposure
  WindExposed,                            !- Wind Exposure
  ,                                       !- View Factor to Ground
  ,                                       !- Number of Vertices
  0, 30.4785135876431, 8.53398380454007,  !- X,Y,Z Vertex 1 {m}
  0, 30.4785135876431, 0,                 !- X,Y,Z Vertex 2 {m}
  0, 9.14355407629293, 0,                 !- X,Y,Z Vertex 3 {m}
  0, 9.14355407629293, 8.53398380454007;  !- X,Y,Z Vertex 4 {m}

OS:Connection,
  {dc04fefb-3f18-45be-8f68-9d2cd3eb4a21}, !- Handle
  ,                                       !- Source Object
  11,                                     !- Outlet Port
  ,                                       !- Target Object
  2;                                      !- Inlet Port

OS:Space,
  {cdd6a95f-f907-4c0e-817d-962525d358d0}, !- Handle
  Zone2 Fine Storage,                     !- Name
  {f6907e5f-7752-47ad-bfcd-c6fb8b1f86ab}, !- Space Type Name
  ,                                       !- Default Construction Set Name
  ,                                       !- Default Schedule Set Name
  -0,                                     !- Direction of Relative North {deg}
  0,                                      !- X Origin {m}
  0,                                      !- Y Origin {m}
  0,                                      !- Z Origin {m}
  {db75d8b1-6332-4998-b7c2-ad46d4bbd08b}, !- Building Story Name
  {9b5fc8c5-9354-4c61-9caf-d0c55ffacba0}, !- Thermal Zone Name
  Yes,                                    !- Part of Total Floor Area
  ,                                       !- Design Specification Outdoor Air Object Name
  ,                                       !- Building Unit Name
  Autocalculate;                          !- Volume {m3}

OS:Surface,
  {b8444fba-ff4e-4e81-b369-e9f3efc4a2d6}, !- Handle
  Office Roof,                            !- Name
  RoofCeiling,                            !- Surface Type
  ,                                       !- Construction Name
  {12c3d4a0-20ec-4e1f-8040-e70cdfba4a69}, !- Space Name
  Surface,                                !- Outside Boundary Condition
  {a273ffc4-632f-4b89-9d6d-f94185f45049}, !- Outside Boundary Condition Object
  NoSun,                                  !- Sun Exposure
  NoWind,                                 !- Wind Exposure
  ,                                       !- View Factor to Ground
  ,                                       !- Number of Vertices
  25.9067365494966, 0, 4.26699190227003,  !- X,Y,Z Vertex 1 {m}
  25.9067365494966, 9.14355407629293, 4.26699190227003, !- X,Y,Z Vertex 2 {m}
  0, 9.14355407629293, 4.26699190227003,  !- X,Y,Z Vertex 3 {m}
  0, 0, 4.26699190227003;                 !- X,Y,Z Vertex 4 {m}

OS:Connection,
  {3386e9fe-e830-491d-a1bc-dbb0ba0af916}, !- Handle
  ,                                       !- Source Object
  11,                                     !- Outlet Port
  ,                                       !- Target Object
  2;                                      !- Inlet Port

OS:Space,
  {12c3d4a0-20ec-4e1f-8040-e70cdfba4a69}, !- Handle
  Zone1 Office,                           !- Name
  {b0aef65a-6c0f-43e9-b00a-681a7595a4b8}, !- Space Type Name
  ,                                       !- Default Construction Set Name
  ,                                       !- Default Schedule Set Name
  0,                                      !- Direction of Relative North {deg}
  0,                                      !- X Origin {m}
  0,                                      !- Y Origin {m}
  0,                                      !- Z Origin {m}
  {db75d8b1-6332-4998-b7c2-ad46d4bbd08b}, !- Building Story Name
  {09b8e002-9d58-4caa-8c2d-7f75b29b31e4}, !- Thermal Zone Name
  Yes,                                    !- Part of Total Floor Area
  ,                                       !- Design Specification Outdoor Air Object Name
  ,                                       !- Building Unit Name
  Autocalculate;                          !- Volume {m3}

OS:Surface,
  {a273ffc4-632f-4b89-9d6d-f94185f45049}, !- Handle
  Office Roof Reversed,                   !- Name
  Floor,                                  !- Surface Type
  ,                                       !- Construction Name
  {cdd6a95f-f907-4c0e-817d-962525d358d0}, !- Space Name
  Surface,                                !- Outside Boundary Condition
  {b8444fba-ff4e-4e81-b369-e9f3efc4a2d6}, !- Outside Boundary Condition Object
  NoSun,                                  !- Sun Exposure
  NoWind,                                 !- Wind Exposure
  ,                                       !- View Factor to Ground
  ,                                       !- Number of Vertices
  25.9067365494966, 9.14355407629293, 4.26699190227003, !- X,Y,Z Vertex 1 {m}
  25.9067365494966, 0, 4.26699190227003,  !- X,Y,Z Vertex 2 {m}
  0, 0, 4.26699190227003,                 !- X,Y,Z Vertex 3 {m}
  0, 9.14355407629293, 4.26699190227003;  !- X,Y,Z Vertex 4 {m}

OS:Surface,
  {b8b06532-b20c-4b27-b353-fb685ea15ba8}, !- Handle
  Bulk Storage Rear Wall,                 !- Name
  Wall,                                   !- Surface Type
  ,                                       !- Construction Name
  {39655c19-15b3-4081-92c2-4613ae84d8e6}, !- Space Name
  Outdoors,                               !- Outside Boundary Condition
  ,                                       !- Outside Boundary Condition Object
  SunExposed,                             !- Sun Exposure
  WindExposed,                            !- Wind Exposure
  ,                                       !- View Factor to Ground
  ,                                       !- Number of Vertices
  45.7177703814647, 100.579094839222, 8.53398380454007, !- X,Y,Z Vertex 1 {m}
  45.7177703814647, 100.579094839222, 0,  !- X,Y,Z Vertex 2 {m}
  0, 100.579094839222, 0,                 !- X,Y,Z Vertex 3 {m}
  0, 100.579094839222, 8.53398380454007;  !- X,Y,Z Vertex 4 {m}

OS:Surface,
  {e86312f3-df9c-4a72-8bf5-276fd9968053}, !- Handle
  Bulk Storage Floor,                     !- Name
  Floor,                                  !- Surface Type
  {46c84554-eff5-427b-90c3-d368c19b731a}, !- Construction Name
  {39655c19-15b3-4081-92c2-4613ae84d8e6}, !- Space Name
  Foundation,                             !- Outside Boundary Condition
  {271fa4ba-2c1d-484f-89ed-dda457b0ba1f}, !- Outside Boundary Condition Object
  NoSun,                                  !- Sun Exposure
  NoWind,                                 !- Wind Exposure
  ,                                       !- View Factor to Ground
  ,                                       !- Number of Vertices
  45.7177703814647, 100.579094839222, 0,  !- X,Y,Z Vertex 1 {m}
  45.7177703814647, 30.4785135876431, 0,  !- X,Y,Z Vertex 2 {m}
  0, 30.4785135876431, 0,                 !- X,Y,Z Vertex 3 {m}
  0, 100.579094839222, 0;                 !- X,Y,Z Vertex 4 {m}

OS:Surface,
  {2eb36d53-8956-4573-9d42-f3de2486a693}, !- Handle
  Bulk Storage Left Wall,                 !- Name
  Wall,                                   !- Surface Type
  ,                                       !- Construction Name
  {39655c19-15b3-4081-92c2-4613ae84d8e6}, !- Space Name
  Outdoors,                               !- Outside Boundary Condition
  ,                                       !- Outside Boundary Condition Object
  SunExposed,                             !- Sun Exposure
  WindExposed,                            !- Wind Exposure
  ,                                       !- View Factor to Ground
  ,                                       !- Number of Vertices
  0, 100.579094839222, 8.53398380454007,  !- X,Y,Z Vertex 1 {m}
  0, 100.579094839222, 0,                 !- X,Y,Z Vertex 2 {m}
  0, 30.4785135876431, 0,                 !- X,Y,Z Vertex 3 {m}
  0, 30.4785135876431, 8.53398380454007;  !- X,Y,Z Vertex 4 {m}

OS:Surface,
  {eb38baf8-4819-4f38-99d7-de17082804a6}, !- Handle
  Fine Storage Floor,                     !- Name
  Floor,                                  !- Surface Type
  {46c84554-eff5-427b-90c3-d368c19b731a}, !- Construction Name
  {cdd6a95f-f907-4c0e-817d-962525d358d0}, !- Space Name
  Foundation,                             !- Outside Boundary Condition
  {271fa4ba-2c1d-484f-89ed-dda457b0ba1f}, !- Outside Boundary Condition Object
  NoSun,                                  !- Sun Exposure
  NoWind,                                 !- Wind Exposure
  ,                                       !- View Factor to Ground
  ,                                       !- Number of Vertices
  45.7177703814647, 30.4785135876431, 0,  !- X,Y,Z Vertex 1 {m}
  45.7177703814647, 0, 0,                 !- X,Y,Z Vertex 2 {m}
  25.9067365494966, 0, 0,                 !- X,Y,Z Vertex 3 {m}
  25.9067365494966, 9.14355407629293, 0,  !- X,Y,Z Vertex 4 {m}
  0, 9.14355407629293, 0,                 !- X,Y,Z Vertex 5 {m}
  0, 30.4785135876431, 0;                 !- X,Y,Z Vertex 6 {m}

OS:Surface,
  {a0ba0fa9-aa51-4fbe-bdcc-bf0a22e397dd}, !- Handle
  Fine Storage Right Wall,                !- Name
  Wall,                                   !- Surface Type
  ,                                       !- Construction Name
  {cdd6a95f-f907-4c0e-817d-962525d358d0}, !- Space Name
  Outdoors,                               !- Outside Boundary Condition
  ,                                       !- Outside Boundary Condition Object
  SunExposed,                             !- Sun Exposure
  WindExposed,                            !- Wind Exposure
  ,                                       !- View Factor to Ground
  ,                                       !- Number of Vertices
  45.7177703814647, 0, 8.53398380454007,  !- X,Y,Z Vertex 1 {m}
  45.7177703814647, 0, 0,                 !- X,Y,Z Vertex 2 {m}
  45.7177703814647, 30.4785135876431, 0,  !- X,Y,Z Vertex 3 {m}
  45.7177703814647, 30.4785135876431, 8.53398380454007; !- X,Y,Z Vertex 4 {m}

OS:Surface,
  {dcc10c35-212a-4ba7-8909-e38fa0c8d3e8}, !- Handle
  Fine Storage Roof,                      !- Name
  RoofCeiling,                            !- Surface Type
  ,                                       !- Construction Name
  {cdd6a95f-f907-4c0e-817d-962525d358d0}, !- Space Name
  Outdoors,                               !- Outside Boundary Condition
  ,                                       !- Outside Boundary Condition Object
  SunExposed,                             !- Sun Exposure
  WindExposed,                            !- Wind Exposure
  ,                                       !- View Factor to Ground
  ,                                       !- Number of Vertices
  45.7177703814647, 0, 8.53398380454007,  !- X,Y,Z Vertex 1 {m}
  45.7177703814647, 30.4785135876431, 8.53398380454007, !- X,Y,Z Vertex 2 {m}
  0, 30.4785135876431, 8.53398380454007,  !- X,Y,Z Vertex 3 {m}
  0, 0, 8.53398380454007;                 !- X,Y,Z Vertex 4 {m}

OS:Surface,
  {af7ffab5-cb7d-4793-a68a-918ca67f7479}, !- Handle
  Office Left Wall,                       !- Name
  Wall,                                   !- Surface Type
  ,                                       !- Construction Name
  {12c3d4a0-20ec-4e1f-8040-e70cdfba4a69}, !- Space Name
  Outdoors,                               !- Outside Boundary Condition
  ,                                       !- Outside Boundary Condition Object
  SunExposed,                             !- Sun Exposure
  WindExposed,                            !- Wind Exposure
  ,                                       !- View Factor to Ground
  ,                                       !- Number of Vertices
  0, 9.14355407629293, 4.26699190227003,  !- X,Y,Z Vertex 1 {m}
  0, 9.14355407629293, 0,                 !- X,Y,Z Vertex 2 {m}
  0, 0, 0,                                !- X,Y,Z Vertex 3 {m}
  0, 0, 4.26699190227003;                 !- X,Y,Z Vertex 4 {m}

OS:Surface,
  {a966bae9-9301-4492-ae85-a3416cb9da09}, !- Handle
  Office Floor,                           !- Name
  Floor,                                  !- Surface Type
  {46c84554-eff5-427b-90c3-d368c19b731a}, !- Construction Name
  {12c3d4a0-20ec-4e1f-8040-e70cdfba4a69}, !- Space Name
  Foundation,                             !- Outside Boundary Condition
  {271fa4ba-2c1d-484f-89ed-dda457b0ba1f}, !- Outside Boundary Condition Object
  NoSun,                                  !- Sun Exposure
  NoWind,                                 !- Wind Exposure
  ,                                       !- View Factor to Ground
  ,                                       !- Number of Vertices
  25.9067365494966, 9.14355407629293, 0,  !- X,Y,Z Vertex 1 {m}
  25.9067365494966, 0, 0,                 !- X,Y,Z Vertex 2 {m}
  0, 0, 0,                                !- X,Y,Z Vertex 3 {m}
  0, 9.14355407629293, 0;                 !- X,Y,Z Vertex 4 {m}

OS:Surface,
  {7f4aebb1-9044-44cb-91ee-e1a559b436a0}, !- Handle
  Office Right Wall,                      !- Name
  Wall,                                   !- Surface Type
  ,                                       !- Construction Name
  {12c3d4a0-20ec-4e1f-8040-e70cdfba4a69}, !- Space Name
  Surface,                                !- Outside Boundary Condition
  {12dbc2fb-3517-42f9-9f00-f6147aaade5b}, !- Outside Boundary Condition Object
  NoSun,                                  !- Sun Exposure
  NoWind,                                 !- Wind Exposure
  ,                                       !- View Factor to Ground
  ,                                       !- Number of Vertices
  25.9067365494966, 0, 4.26699190227003,  !- X,Y,Z Vertex 1 {m}
  25.9067365494966, 0, 0,                 !- X,Y,Z Vertex 2 {m}
  25.9067365494966, 9.14355407629293, 0,  !- X,Y,Z Vertex 3 {m}
  25.9067365494966, 9.14355407629293, 4.26699190227003; !- X,Y,Z Vertex 4 {m}

OS:Surface,
  {12dbc2fb-3517-42f9-9f00-f6147aaade5b}, !- Handle
  Office Right Wall Reversed,             !- Name
  Wall,                                   !- Surface Type
  ,                                       !- Construction Name
  {cdd6a95f-f907-4c0e-817d-962525d358d0}, !- Space Name
  Surface,                                !- Outside Boundary Condition
  {7f4aebb1-9044-44cb-91ee-e1a559b436a0}, !- Outside Boundary Condition Object
  NoSun,                                  !- Sun Exposure
  NoWind,                                 !- Wind Exposure
  ,                                       !- View Factor to Ground
  ,                                       !- Number of Vertices
  25.9067365494966, 9.14355407629293, 4.26699190227003, !- X,Y,Z Vertex 1 {m}
  25.9067365494966, 9.14355407629293, 0,  !- X,Y,Z Vertex 2 {m}
  25.9067365494966, 0, 0,                 !- X,Y,Z Vertex 3 {m}
  25.9067365494966, 0, 4.26699190227003;  !- X,Y,Z Vertex 4 {m}

OS:Surface,
  {a722f50f-fda4-4b2c-843f-44ea72a832c9}, !- Handle
  Office Front Wall,                      !- Name
  Wall,                                   !- Surface Type
  ,                                       !- Construction Name
  {12c3d4a0-20ec-4e1f-8040-e70cdfba4a69}, !- Space Name
  Outdoors,                               !- Outside Boundary Condition
  ,                                       !- Outside Boundary Condition Object
  SunExposed,                             !- Sun Exposure
  WindExposed,                            !- Wind Exposure
  ,                                       !- View Factor to Ground
  ,                                       !- Number of Vertices
  0, 0, 4.26699190227003,                 !- X,Y,Z Vertex 1 {m}
  0, 0, 0,                                !- X,Y,Z Vertex 2 {m}
  25.9067365494966, 0, 0,                 !- X,Y,Z Vertex 3 {m}
  25.9067365494966, 0, 4.26699190227003;  !- X,Y,Z Vertex 4 {m}

OS:Surface,
  {2ce21271-4aa0-4b4e-af87-47994c8beac1}, !- Handle
  Bulk Storage Front Wall,                !- Name
  Wall,                                   !- Surface Type
  ,                                       !- Construction Name
  {39655c19-15b3-4081-92c2-4613ae84d8e6}, !- Space Name
  Surface,                                !- Outside Boundary Condition
  {139e955e-746e-43dc-9033-026507021b5a}, !- Outside Boundary Condition Object
  NoSun,                                  !- Sun Exposure
  NoWind,                                 !- Wind Exposure
  ,                                       !- View Factor to Ground
  ,                                       !- Number of Vertices
  0, 30.4785135876431, 8.53398380454007,  !- X,Y,Z Vertex 1 {m}
  0, 30.4785135876431, 0,                 !- X,Y,Z Vertex 2 {m}
  45.7177703814647, 30.4785135876431, 0,  !- X,Y,Z Vertex 3 {m}
  45.7177703814647, 30.4785135876431, 8.53398380454007; !- X,Y,Z Vertex 4 {m}

OS:Surface,
  {139e955e-746e-43dc-9033-026507021b5a}, !- Handle
  Bulk Storage Front Wall Reversed,       !- Name
  Wall,                                   !- Surface Type
  ,                                       !- Construction Name
  {cdd6a95f-f907-4c0e-817d-962525d358d0}, !- Space Name
  Surface,                                !- Outside Boundary Condition
  {2ce21271-4aa0-4b4e-af87-47994c8beac1}, !- Outside Boundary Condition Object
  NoSun,                                  !- Sun Exposure
  NoWind,                                 !- Wind Exposure
  ,                                       !- View Factor to Ground
  ,                                       !- Number of Vertices
  45.7177703814647, 30.4785135876431, 8.53398380454007, !- X,Y,Z Vertex 1 {m}
  45.7177703814647, 30.4785135876431, 0,  !- X,Y,Z Vertex 2 {m}
  0, 30.4785135876431, 0,                 !- X,Y,Z Vertex 3 {m}
  0, 30.4785135876431, 8.53398380454007;  !- X,Y,Z Vertex 4 {m}

OS:Surface,
  {145bfd04-ce48-4581-a2a9-e8970362044f}, !- Handle
  Fine Storage Office Left Wall,          !- Name
  Wall,                                   !- Surface Type
  ,                                       !- Construction Name
  {cdd6a95f-f907-4c0e-817d-962525d358d0}, !- Space Name
  Outdoors,                               !- Outside Boundary Condition
  ,                                       !- Outside Boundary Condition Object
  SunExposed,                             !- Sun Exposure
  WindExposed,                            !- Wind Exposure
  ,                                       !- View Factor to Ground
  ,                                       !- Number of Vertices
  0, 9.14355407629293, 8.53398380454007,  !- X,Y,Z Vertex 1 {m}
  0, 9.14355407629293, 4.26699190227003,  !- X,Y,Z Vertex 2 {m}
  0, 0, 4.26699190227003,                 !- X,Y,Z Vertex 3 {m}
  0, 0, 8.53398380454007;                 !- X,Y,Z Vertex 4 {m}

OS:Surface,
  {93a00761-ab33-4e9d-bff7-fed32e66feb1}, !- Handle
  Bulk Storage Right Wall,                !- Name
  Wall,                                   !- Surface Type
  ,                                       !- Construction Name
  {39655c19-15b3-4081-92c2-4613ae84d8e6}, !- Space Name
  Outdoors,                               !- Outside Boundary Condition
  ,                                       !- Outside Boundary Condition Object
  SunExposed,                             !- Sun Exposure
  WindExposed,                            !- Wind Exposure
  ,                                       !- View Factor to Ground
  ,                                       !- Number of Vertices
  45.7177703814647, 30.4785135876431, 8.53398380454007, !- X,Y,Z Vertex 1 {m}
  45.7177703814647, 30.4785135876431, 0,  !- X,Y,Z Vertex 2 {m}
  45.7177703814647, 100.579094839222, 0,  !- X,Y,Z Vertex 3 {m}
  45.7177703814647, 100.579094839222, 8.53398380454007; !- X,Y,Z Vertex 4 {m}

OS:Surface,
  {857f9ef3-3061-45eb-b04c-b4a4b76ff6cd}, !- Handle
  Office Rear Wall,                       !- Name
  Wall,                                   !- Surface Type
  ,                                       !- Construction Name
  {12c3d4a0-20ec-4e1f-8040-e70cdfba4a69}, !- Space Name
  Surface,                                !- Outside Boundary Condition
  {4047aa22-d7b0-4e4a-a8a7-99a21122cc53}, !- Outside Boundary Condition Object
  NoSun,                                  !- Sun Exposure
  NoWind,                                 !- Wind Exposure
  ,                                       !- View Factor to Ground
  ,                                       !- Number of Vertices
  25.9067365494966, 9.14355407629293, 4.26699190227003, !- X,Y,Z Vertex 1 {m}
  25.9067365494966, 9.14355407629293, 0,  !- X,Y,Z Vertex 2 {m}
  0, 9.14355407629293, 0,                 !- X,Y,Z Vertex 3 {m}
  0, 9.14355407629293, 4.26699190227003;  !- X,Y,Z Vertex 4 {m}

OS:Surface,
  {4047aa22-d7b0-4e4a-a8a7-99a21122cc53}, !- Handle
  Office Rear Wall Reversed,              !- Name
  Wall,                                   !- Surface Type
  ,                                       !- Construction Name
  {cdd6a95f-f907-4c0e-817d-962525d358d0}, !- Space Name
  Surface,                                !- Outside Boundary Condition
  {857f9ef3-3061-45eb-b04c-b4a4b76ff6cd}, !- Outside Boundary Condition Object
  NoSun,                                  !- Sun Exposure
  NoWind,                                 !- Wind Exposure
  ,                                       !- View Factor to Ground
  ,                                       !- Number of Vertices
  0, 9.14355407629293, 4.26699190227003,  !- X,Y,Z Vertex 1 {m}
  0, 9.14355407629293, 0,                 !- X,Y,Z Vertex 2 {m}
  25.9067365494966, 9.14355407629293, 0,  !- X,Y,Z Vertex 3 {m}
  25.9067365494966, 9.14355407629293, 4.26699190227003; !- X,Y,Z Vertex 4 {m}

OS:Surface,
  {a50eff28-8688-422b-9443-0a4fe183df9f}, !- Handle
  Fine Storage Front Wall,                !- Name
  Wall,                                   !- Surface Type
  ,                                       !- Construction Name
  {cdd6a95f-f907-4c0e-817d-962525d358d0}, !- Space Name
  Outdoors,                               !- Outside Boundary Condition
  ,                                       !- Outside Boundary Condition Object
  SunExposed,                             !- Sun Exposure
  WindExposed,                            !- Wind Exposure
  ,                                       !- View Factor to Ground
  ,                                       !- Number of Vertices
  25.9067365494966, 0, 8.53398380454007,  !- X,Y,Z Vertex 1 {m}
  25.9067365494966, 0, 0,                 !- X,Y,Z Vertex 2 {m}
  45.7177703814647, 0, 0,                 !- X,Y,Z Vertex 3 {m}
  45.7177703814647, 0, 8.53398380454007;  !- X,Y,Z Vertex 4 {m}

OS:Surface,
  {5b1ce779-a299-4910-83a2-6fb6d1cee24f}, !- Handle
  Fine Storage Office Front Wall,         !- Name
  Wall,                                   !- Surface Type
  ,                                       !- Construction Name
  {cdd6a95f-f907-4c0e-817d-962525d358d0}, !- Space Name
  Outdoors,                               !- Outside Boundary Condition
  ,                                       !- Outside Boundary Condition Object
  SunExposed,                             !- Sun Exposure
  WindExposed,                            !- Wind Exposure
  ,                                       !- View Factor to Ground
  ,                                       !- Number of Vertices
  0, 0, 8.53398380454007,                 !- X,Y,Z Vertex 1 {m}
  0, 0, 4.26699190227003,                 !- X,Y,Z Vertex 2 {m}
  25.9067365494966, 0, 4.26699190227003,  !- X,Y,Z Vertex 3 {m}
  25.9067365494966, 0, 8.53398380454007;  !- X,Y,Z Vertex 4 {m}

OS:ClimateZones,
  {376b058c-4e5c-42e7-91c5-a7e3e46c14bb}, !- Handle
  ASHRAE,                                 !- Climate Zone Institution Name 1
  ANSI/ASHRAE Standard 169,               !- Climate Zone Document Name 1
  2006,                                   !- Climate Zone Document Year 1
  7;                                      !- Climate Zone Value 1

OS:LifeCycleCost:Parameters,
  {9b956084-335f-4719-be60-6c3e1f278aa5}, !- Handle
  FEMP,                                   !- Analysis Type
  ,                                       !- Discounting Convention
  ,                                       !- Inflation Approach
  ,                                       !- Real Discount Rate
  ,                                       !- Nominal Discount Rate
  ,                                       !- Inflation
  ,                                       !- Base Date Month
  ,                                       !- Base Date Year
  ,                                       !- Service Date Month
  ,                                       !- Service Date Year
  ,                                       !- Length of Study Period in Years
  ,                                       !- Tax Rate
  ,                                       !- Depreciation Method
  Yes;                                    !- Use NIST Fuel Escalation Rates

OS:YearDescription,
  {429de7de-6704-419c-b62c-ed3f08bd405f}, !- Handle
  ,                                       !- Calendar Year
  Sunday;                                 !- Day of Week for Start Day

OS:Building,
  {c23ded4b-6f18-4e30-b6db-cc00e1198751}, !- Handle
  Warehouse,                              !- Name
  ,                                       !- Building Sector Type
  ,                                       !- North Axis {deg}
  ,                                       !- Nominal Floor to Floor Height {m}
  ,                                       !- Space Type Name
  {b88e4f12-355e-42b8-a69c-f6bb7a2ff4e6}, !- Default Construction Set Name
  ,                                       !- Default Schedule Set Name
  1,                                      !- Standards Number of Stories
  1,                                      !- Standards Number of Above Ground Stories
  NECB2011,                               !- Standards Template
  Warehouse,                              !- Standards Building Type
  ,                                       !- Standards Number of Living Units
  ,                                       !- Relocatable
  ;                                       !- Nominal Floor to Ceiling Height {m}

OS:Facility,
  {df4e9cbf-49a4-4de4-b2f6-6cba678a29a8}; !- Handle

OS:BuildingStory,
  {db75d8b1-6332-4998-b7c2-ad46d4bbd08b}, !- Handle
  Building Story 1,                       !- Name
  0,                                      !- Nominal Z Coordinate {m}
  ,                                       !- Nominal Floor to Floor Height {m}
  ,                                       !- Default Construction Set Name
  ,                                       !- Default Schedule Set Name
  {cb12b671-9a37-492b-a7d2-da8e6f945c90}; !- Group Rendering Name

OS:WeatherFile,
  {d330a933-d91d-402e-a299-cce3daeb0147}, !- Handle
  Calgary Intl AP,                        !- City
  AB,                                     !- State Province Region
  CAN,                                    !- Country
  CWEC2020,                               !- Data Source
  718770,                                 !- WMO Number
  51.11,                                  !- Latitude {deg}
  -114.02,                                !- Longitude {deg}
  -7,                                     !- Time Zone {hr}
  1084.1,                                 !- Elevation {m}
  /home/osdev/openstudio-standards/data/weather/CAN_AB_Calgary.Intl.AP.718770_CWEC2020.epw, !- Url
  1F2D03BB,                               !- Checksum
  ,                                       !- Start Date Actual Year
  Sunday;                                 !- Start Day of Week

OS:Site,
  {3f226781-5670-4b8b-98cd-6493912cc260}, !- Handle
  Calgary Intl AP_AB_CAN,                 !- Name
  51.11,                                  !- Latitude {deg}
  -114.02,                                !- Longitude {deg}
  -7,                                     !- Time Zone {hr}
  1084.1,                                 !- Elevation {m}
  ;                                       !- Terrain

OS:Site:WaterMainsTemperature,
  {938b584d-3e4d-4a98-bf7a-ec7f0b18609b}, !- Handle
  Correlation,                            !- Calculation Method
  ,                                       !- Temperature Schedule Name
  4.69166666666667,                       !- Annual Average Outdoor Air Temperature {C}
  24.6;                                   !- Maximum Difference In Monthly Average Outdoor Air Temperatures {deltaC}

OS:Site:GroundTemperature:BuildingSurface,
  {09ad5aee-04df-4ab6-a9c4-861c1be2af1c}, !- Handle
  19.527,                                 !- January Ground Temperature {C}
  19.502,                                 !- February Ground Temperature {C}
  19.536,                                 !- March Ground Temperature {C}
  19.598,                                 !- April Ground Temperature {C}
  20.002,                                 !- May Ground Temperature {C}
  21.64,                                  !- June Ground Temperature {C}
  22.225,                                 !- July Ground Temperature {C}
  22.375,                                 !- August Ground Temperature {C}
  21.449,                                 !- September Ground Temperature {C}
  20.121,                                 !- October Ground Temperature {C}
  19.802,                                 !- November Ground Temperature {C}
  19.633;                                 !- December Ground Temperature {C}

OS:SpaceType,
  {a6aa64ea-d7e8-4be2-93e7-411cbc4acca9}, !- Handle
  Space Function Warehouse - med/blk,     !- Name
  ,                                       !- Default Construction Set Name
  {d10993bb-5a34-4b45-925c-d29617edccfe}, !- Default Schedule Set Name
  {d53df334-35f0-47c4-bcd8-24b824cd60b0}, !- Group Rendering Name
  {73c7946a-6f51-4e9d-807c-40692b71c62b}, !- Design Specification Outdoor Air Object Name
  ,                                       !- Standards Template
  Space Function,                         !- Standards Building Type
  Warehouse - med/blk;                    !- Standards Space Type

OS:Rendering:Color,
  {7ef8e62a-e56f-49cf-bdef-a2ed2a634f78}, !- Handle
  Space Function Warehouse - med/blk,     !- Name
  255,                                    !- Rendering Red Value
  255,                                    !- Rendering Green Value
  255;                                    !- Rendering Blue Value

OS:SpaceType,
  {f6907e5f-7752-47ad-bfcd-c6fb8b1f86ab}, !- Handle
  Space Function Warehouse - fine,        !- Name
  ,                                       !- Default Construction Set Name
  {cc537a76-7264-4058-85b5-ce080a2b2a15}, !- Default Schedule Set Name
  {8308dd61-9b7a-4a04-889f-0461115cec6f}, !- Group Rendering Name
  {b54a48d1-a718-4e73-b11a-aff2a77d0c8c}, !- Design Specification Outdoor Air Object Name
  ,                                       !- Standards Template
  Space Function,                         !- Standards Building Type
  Warehouse - fine;                       !- Standards Space Type

OS:Rendering:Color,
  {8936df75-08a5-4da0-85c6-8b63015e2643}, !- Handle
  Space Function Warehouse - fine,        !- Name
  255,                                    !- Rendering Red Value
  255,                                    !- Rendering Green Value
  255;                                    !- Rendering Blue Value

OS:SpaceType,
  {b0aef65a-6c0f-43e9-b00a-681a7595a4b8}, !- Handle
  Space Function Office - enclosed,       !- Name
  ,                                       !- Default Construction Set Name
  {b4ac1f2c-3a7b-4a2c-bdc6-f5a3d46bc630}, !- Default Schedule Set Name
  {e923b22d-e6e6-467e-b00d-4c633443e1c7}, !- Group Rendering Name
  {d21bb4f7-7fac-4311-8a82-ed890cd98957}, !- Design Specification Outdoor Air Object Name
  ,                                       !- Standards Template
  Space Function,                         !- Standards Building Type
  Office - enclosed;                      !- Standards Space Type

OS:Rendering:Color,
  {f20c7626-c2b9-4128-b80e-20a346a7162a}, !- Handle
  Space Function Office - enclosed,       !- Name
  255,                                    !- Rendering Red Value
  255,                                    !- Rendering Green Value
  255;                                    !- Rendering Blue Value

OS:Rendering:Color,
  {811b2c76-a5c6-417e-834d-ec88c5e0f13b}, !- Handle
  Rendering Color 1,                      !- Name
  210,                                    !- Rendering Red Value
  140,                                    !- Rendering Green Value
  180;                                    !- Rendering Blue Value

OS:Rendering:Color,
  {76ba9932-64f2-43b9-b655-cf3951d840cf}, !- Handle
  Rendering Color 2,                      !- Name
  173,                                    !- Rendering Red Value
  230,                                    !- Rendering Green Value
  216;                                    !- Rendering Blue Value

OS:Rendering:Color,
  {d6aed905-3d1a-4119-907d-90a8d74c9f48}, !- Handle
  Rendering Color 3,                      !- Name
  0,                                      !- Rendering Red Value
  209,                                    !- Rendering Green Value
  206;                                    !- Rendering Blue Value

OS:Rendering:Color,
  {cb12b671-9a37-492b-a7d2-da8e6f945c90}, !- Handle
  Rendering Color 4,                      !- Name
  34,                                     !- Rendering Red Value
  34,                                     !- Rendering Green Value
  139;                                    !- Rendering Blue Value

OS:SizingPeriod:DesignDay,
  {bfa00a7a-9c50-49c0-94c4-14d43fa1b005}, !- Handle
  Calgary Intl AP Ann Clg .4% Condns DB=>MWB, !- Name
  28.8,                                   !- Maximum Dry-Bulb Temperature {C}
  12.3,                                   !- Daily Dry-Bulb Temperature Range {deltaC}
  88961,                                  !- Barometric Pressure {Pa}
  4.5,                                    !- Wind Speed {m/s}
  160,                                    !- Wind Direction {deg}
  ,                                       !- Sky Clearness
  No,                                     !- Rain Indicator
  No,                                     !- Snow Indicator
  21,                                     !- Day of Month
  7,                                      !- Month
  SummerDesignDay,                        !- Day Type
  No,                                     !- Daylight Saving Time Indicator
  Wetbulb,                                !- Humidity Condition Type
  ,                                       !- Humidity Condition Day Schedule Name
  16,                                     !- Wetbulb or DewPoint at Maximum Dry-Bulb {C}
  ,                                       !- Humidity Ratio at Maximum Dry-Bulb {kgWater/kgDryAir}
  ,                                       !- Enthalpy at Maximum Dry-Bulb {J/kg}
  DefaultMultipliers,                     !- Dry-Bulb Temperature Range Modifier Type
  ,                                       !- Dry-Bulb Temperature Range Modifier Day Schedule Name
  ASHRAETau,                              !- Solar Model Indicator
  ,                                       !- Beam Solar Day Schedule Name
  ,                                       !- Diffuse Solar Day Schedule Name
  0.34,                                   !- ASHRAE Clear Sky Optical Depth for Beam Irradiance {dimensionless}
  2.419;                                  !- ASHRAE Clear Sky Optical Depth for Diffuse Irradiance {dimensionless}

OS:SizingPeriod:DesignDay,
  {1b618145-7716-4299-aaa1-38c0c4f95f95}, !- Handle
  Calgary Intl AP Ann Clg .4% Condns WB=>MDB, !- Name
  25.5,                                   !- Maximum Dry-Bulb Temperature {C}
  12.3,                                   !- Daily Dry-Bulb Temperature Range {deltaC}
  88961,                                  !- Barometric Pressure {Pa}
  4.5,                                    !- Wind Speed {m/s}
  160,                                    !- Wind Direction {deg}
  ,                                       !- Sky Clearness
  No,                                     !- Rain Indicator
  No,                                     !- Snow Indicator
  21,                                     !- Day of Month
  7,                                      !- Month
  SummerDesignDay,                        !- Day Type
  No,                                     !- Daylight Saving Time Indicator
  Wetbulb,                                !- Humidity Condition Type
  ,                                       !- Humidity Condition Day Schedule Name
  17.8,                                   !- Wetbulb or DewPoint at Maximum Dry-Bulb {C}
  ,                                       !- Humidity Ratio at Maximum Dry-Bulb {kgWater/kgDryAir}
  ,                                       !- Enthalpy at Maximum Dry-Bulb {J/kg}
  DefaultMultipliers,                     !- Dry-Bulb Temperature Range Modifier Type
  ,                                       !- Dry-Bulb Temperature Range Modifier Day Schedule Name
  ASHRAETau,                              !- Solar Model Indicator
  ,                                       !- Beam Solar Day Schedule Name
  ,                                       !- Diffuse Solar Day Schedule Name
  0.34,                                   !- ASHRAE Clear Sky Optical Depth for Beam Irradiance {dimensionless}
  2.419;                                  !- ASHRAE Clear Sky Optical Depth for Diffuse Irradiance {dimensionless}

OS:SizingPeriod:DesignDay,
  {8dd65ba9-1dc8-45ae-9a23-9054162150b4}, !- Handle
  Calgary Intl AP Ann Htg 99.6% Condns DB, !- Name
  -27.7,                                  !- Maximum Dry-Bulb Temperature {C}
  0,                                      !- Daily Dry-Bulb Temperature Range {deltaC}
  88961,                                  !- Barometric Pressure {Pa}
  2.7,                                    !- Wind Speed {m/s}
  200,                                    !- Wind Direction {deg}
  0,                                      !- Sky Clearness
  No,                                     !- Rain Indicator
  No,                                     !- Snow Indicator
  21,                                     !- Day of Month
  1,                                      !- Month
  WinterDesignDay,                        !- Day Type
  No,                                     !- Daylight Saving Time Indicator
  Wetbulb,                                !- Humidity Condition Type
  ,                                       !- Humidity Condition Day Schedule Name
  -27.7,                                  !- Wetbulb or DewPoint at Maximum Dry-Bulb {C}
  ,                                       !- Humidity Ratio at Maximum Dry-Bulb {kgWater/kgDryAir}
  ,                                       !- Enthalpy at Maximum Dry-Bulb {J/kg}
  DefaultMultipliers,                     !- Dry-Bulb Temperature Range Modifier Type
  ,                                       !- Dry-Bulb Temperature Range Modifier Day Schedule Name
  ASHRAEClearSky;                         !- Solar Model Indicator

OS:Site:GroundTemperature:Shallow,
  {0502d954-36bb-4926-887e-a4d462aa4dc3}, !- Handle
  -1.6,                                   !- January Surface Ground Temperature {C}
  -5.4,                                   !- February Surface Ground Temperature {C}
  -6.4,                                   !- March Surface Ground Temperature {C}
  -5.5,                                   !- April Surface Ground Temperature {C}
  -0.4,                                   !- May Surface Ground Temperature {C}
  5.3,                                    !- June Surface Ground Temperature {C}
  10.8,                                   !- July Surface Ground Temperature {C}
  14.7,                                   !- August Surface Ground Temperature {C}
  15.8,                                   !- September Surface Ground Temperature {C}
  14,                                     !- October Surface Ground Temperature {C}
  9.5,                                    !- November Surface Ground Temperature {C}
  4;                                      !- December Surface Ground Temperature {C}

OS:Site:GroundTemperature:Deep,
  {96d6d05f-f842-4006-87e0-25ee04d683ed}, !- Handle
  4,                                      !- January Deep Ground Temperature {C}
  1.3,                                    !- February Deep Ground Temperature {C}
  -0.4,                                   !- March Deep Ground Temperature {C}
  -0.9,                                   !- April Deep Ground Temperature {C}
  0.1,                                    !- May Deep Ground Temperature {C}
  2.3,                                    !- June Deep Ground Temperature {C}
  5.2,                                    !- July Deep Ground Temperature {C}
  8,                                      !- August Deep Ground Temperature {C}
  9.9,                                    !- September Deep Ground Temperature {C}
  10.3,                                   !- October Deep Ground Temperature {C}
  9.2,                                    !- November Deep Ground Temperature {C}
  7;                                      !- December Deep Ground Temperature {C}

OS:Site:GroundTemperature:FCfactorMethod,
  {1167b41a-9459-498d-9780-4687ff2f8761}, !- Handle
  5.5,                                    !- January Ground Temperature {C}
  -2,                                     !- February Ground Temperature {C}
  -7.6,                                   !- March Ground Temperature {C}
  -6.3,                                   !- April Ground Temperature {C}
  -6.6,                                   !- May Ground Temperature {C}
  -0.3,                                   !- June Ground Temperature {C}
  4.9,                                    !- July Ground Temperature {C}
  10.2,                                   !- August Ground Temperature {C}
  13.8,                                   !- September Ground Temperature {C}
  17,                                     !- October Ground Temperature {C}
  16.6,                                   !- November Ground Temperature {C}
  11.1;                                   !- December Ground Temperature {C}

OS:AdditionalProperties,
  {adc991e6-0d43-4741-95b1-eb53bde3924a}, !- Handle
  {12c3d4a0-20ec-4e1f-8040-e70cdfba4a69}, !- Object Name
  space_conditioning_category,            !- Feature Name 1
  String,                                 !- Feature Data Type 1
  nonresconditioned;                      !- Feature Value 1

OS:AdditionalProperties,
  {f60ad8da-a6c6-4966-a3de-2acd6f86e714}, !- Handle
  {cdd6a95f-f907-4c0e-817d-962525d358d0}, !- Object Name
  space_conditioning_category,            !- Feature Name 1
  String,                                 !- Feature Data Type 1
  nonresconditioned;                      !- Feature Value 1

OS:AdditionalProperties,
  {d3ccffc8-4eb4-4731-a52e-cae9b4195411}, !- Handle
  {39655c19-15b3-4081-92c2-4613ae84d8e6}, !- Object Name
  space_conditioning_category,            !- Feature Name 1
  String,                                 !- Feature Data Type 1
  nonresconditioned;                      !- Feature Value 1

OS:AdditionalProperties,
  {c7821d73-4f27-4e3e-af65-829bdb4e03f9}, !- Handle
  {c23ded4b-6f18-4e30-b6db-cc00e1198751}; !- Object Name

OS:Rendering:Color,
  {b638660c-fd52-4099-acc5-204e4b0bfc18}, !- Handle
  Space Function Office - enclosed 1,     !- Name
  255,                                    !- Rendering Red Value
  255,                                    !- Rendering Green Value
  255;                                    !- Rendering Blue Value

OS:People:Definition,
  {d166191f-bd3c-4566-8db8-4fe94a490709}, !- Handle
  Space Function Office - enclosed People Definition, !- Name
  People/Area,                            !- Number of People Calculation Method
  ,                                       !- Number of People {people}
  0.0500521834377002,                     !- People per Space Floor Area {person/m2}
  ,                                       !- Space Floor Area per Person {m2/person}
  0.3;                                    !- Fraction Radiant

OS:People,
  {d43d78a6-94d4-4df6-a0a8-43c534a7e084}, !- Handle
  Space Function Office - enclosed People, !- Name
  {d166191f-bd3c-4566-8db8-4fe94a490709}, !- People Definition Name
  {b0aef65a-6c0f-43e9-b00a-681a7595a4b8}, !- Space or SpaceType Name
  ,                                       !- Number of People Schedule Name
  ,                                       !- Activity Level Schedule Name
  ,                                       !- Surface Name/Angle Factor List Name
  {57002643-bb30-4f71-a0cc-4bfe1144f8a6}, !- Work Efficiency Schedule Name
  {35a114e3-e8a0-4711-b5d8-db9f29d03851}, !- Clothing Insulation Schedule Name
  {c94183b0-7db3-4cbc-8963-786fdc1c9d3f}, !- Air Velocity Schedule Name
  1;                                      !- Multiplier

OS:Schedule:Ruleset,
  {35a114e3-e8a0-4711-b5d8-db9f29d03851}, !- Handle
  Clothing Schedule,                      !- Name
  {85055886-d03c-43c3-9502-fa6262413a2c}, !- Schedule Type Limits Name
  {eac31207-9556-49c5-ba65-4d57ed260d21}; !- Default Day Schedule Name

OS:Schedule:Day,
  {eac31207-9556-49c5-ba65-4d57ed260d21}, !- Handle
  Clothing Schedule Default Winter Clothes, !- Name
  {85055886-d03c-43c3-9502-fa6262413a2c}, !- Schedule Type Limits Name
  ,                                       !- Interpolate to Timestep
  24,                                     !- Hour 1
  0,                                      !- Minute 1
  1;                                      !- Value Until Time 1

OS:Schedule:Rule,
  {d566ecd5-9c88-4972-aa96-427eccd47547}, !- Handle
  Schedule Rule 1,                        !- Name
  {35a114e3-e8a0-4711-b5d8-db9f29d03851}, !- Schedule Ruleset Name
  0,                                      !- Rule Order
  {996dd1a7-17be-416b-9dfa-c884430394bf}, !- Day Schedule Name
  ,                                       !- Apply Sunday
  ,                                       !- Apply Monday
  ,                                       !- Apply Tuesday
  ,                                       !- Apply Wednesday
  ,                                       !- Apply Thursday
  ,                                       !- Apply Friday
  ,                                       !- Apply Saturday
  DateRange,                              !- Date Specification Type
  5,                                      !- Start Month
  1,                                      !- Start Day
  9,                                      !- End Month
  30;                                     !- End Day

OS:Schedule:Day,
  {996dd1a7-17be-416b-9dfa-c884430394bf}, !- Handle
  Clothing Schedule Summer Clothes,       !- Name
  {85055886-d03c-43c3-9502-fa6262413a2c}, !- Schedule Type Limits Name
  ,                                       !- Interpolate to Timestep
  24,                                     !- Hour 1
  0,                                      !- Minute 1
  0.5;                                    !- Value Until Time 1

OS:ScheduleTypeLimits,
  {85055886-d03c-43c3-9502-fa6262413a2c}, !- Handle
  ClothingInsulation,                     !- Name
  0,                                      !- Lower Limit Value
  ,                                       !- Upper Limit Value
  Continuous,                             !- Numeric Type
  ClothingInsulation;                     !- Unit Type

OS:Schedule:Ruleset,
  {c94183b0-7db3-4cbc-8963-786fdc1c9d3f}, !- Handle
  Air Velocity Schedule,                  !- Name
  {4ada3601-7c29-437a-99c6-8fdc0eb91715}, !- Schedule Type Limits Name
  {77e248fe-f46d-42eb-876f-a2677a17e587}; !- Default Day Schedule Name

OS:Schedule:Day,
  {77e248fe-f46d-42eb-876f-a2677a17e587}, !- Handle
  Air Velocity Schedule Default,          !- Name
  {4ada3601-7c29-437a-99c6-8fdc0eb91715}, !- Schedule Type Limits Name
  ,                                       !- Interpolate to Timestep
  24,                                     !- Hour 1
  0,                                      !- Minute 1
  0.2;                                    !- Value Until Time 1

OS:ScheduleTypeLimits,
  {4ada3601-7c29-437a-99c6-8fdc0eb91715}, !- Handle
  Velocity,                               !- Name
  0,                                      !- Lower Limit Value
  ,                                       !- Upper Limit Value
  Continuous,                             !- Numeric Type
  Velocity;                               !- Unit Type

OS:Schedule:Ruleset,
  {57002643-bb30-4f71-a0cc-4bfe1144f8a6}, !- Handle
  Work Efficiency Schedule,               !- Name
  {b0b086df-1603-4cbd-8fd9-f151ffc390b5}, !- Schedule Type Limits Name
  {2778304f-6046-4207-83cd-3f4f5ae5b236}; !- Default Day Schedule Name

OS:Schedule:Day,
  {2778304f-6046-4207-83cd-3f4f5ae5b236}, !- Handle
  Work Efficiency Schedule Default,       !- Name
  {b0b086df-1603-4cbd-8fd9-f151ffc390b5}, !- Schedule Type Limits Name
  ,                                       !- Interpolate to Timestep
  24,                                     !- Hour 1
  0,                                      !- Minute 1
  0;                                      !- Value Until Time 1

OS:ScheduleTypeLimits,
  {b0b086df-1603-4cbd-8fd9-f151ffc390b5}, !- Handle
  Fractional,                             !- Name
  0,                                      !- Lower Limit Value
  1,                                      !- Upper Limit Value
  Continuous;                             !- Numeric Type

OS:Lights:Definition,
  {3e81c919-ca92-436a-9aa8-15547a086497}, !- Handle
  Space Function Office - enclosed Lights Definition, !- Name
  Watts/Area,                             !- Design Level Calculation Method
  ,                                       !- Lighting Level {W}
  11.8999009612603,                       !- Watts per Space Floor Area {W/m2}
  ,                                       !- Watts per Person {W/person}
  0.5,                                    !- Fraction Radiant
  0.2;                                    !- Fraction Visible

OS:Lights,
  {91e7f706-8ac5-4679-85f0-91bb56aee274}, !- Handle
  Space Function Office - enclosed Lights, !- Name
  {3e81c919-ca92-436a-9aa8-15547a086497}, !- Lights Definition Name
  {b0aef65a-6c0f-43e9-b00a-681a7595a4b8}, !- Space or SpaceType Name
  ,                                       !- Schedule Name
  1,                                      !- Fraction Replaceable
  ,                                       !- Multiplier
  General;                                !- End-Use Subcategory

OS:ElectricEquipment:Definition,
  {7a963712-af99-48f3-b715-5eeffa482f36}, !- Handle
  Space Function Office - enclosed Elec Equip Definition, !- Name
  Watts/Area,                             !- Design Level Calculation Method
  ,                                       !- Design Level {W}
  7.49993758008349,                       !- Watts per Space Floor Area {W/m2}
  ,                                       !- Watts per Person {W/person}
  ,                                       !- Fraction Latent
  0.5;                                    !- Fraction Radiant

OS:ElectricEquipment,
  {ab8b5e17-b6f4-4285-aa09-2eb3aab91d50}, !- Handle
  Space Function Office - enclosed Elec Equip, !- Name
  {7a963712-af99-48f3-b715-5eeffa482f36}, !- Electric Equipment Definition Name
  {b0aef65a-6c0f-43e9-b00a-681a7595a4b8}, !- Space or SpaceType Name
  ,                                       !- Schedule Name
  ,                                       !- Multiplier
  General;                                !- End-Use Subcategory

OS:DesignSpecification:OutdoorAir,
  {d21bb4f7-7fac-4311-8a82-ed890cd98957}, !- Handle
  Space Function Office - enclosed Ventilation, !- Name
  Sum,                                    !- Outdoor Air Method
  0.0142091703329032,                     !- Outdoor Air Flow per Person {m3/s-person}
  ,                                       !- Outdoor Air Flow per Floor Area {m3/s-m2}
  ,                                       !- Outdoor Air Flow Rate {m3/s}
  ,                                       !- Outdoor Air Flow Air Changes per Hour {1/hr}
  ;                                       !- Outdoor Air Flow Rate Fraction Schedule Name

OS:DefaultScheduleSet,
  {b4ac1f2c-3a7b-4a2c-bdc6-f5a3d46bc630}, !- Handle
  Space Function Office - enclosed Schedule Set, !- Name
  ,                                       !- Hours of Operation Schedule Name
  {0a7279a4-3ace-464e-b668-ed21b0b43b62}, !- Number of People Schedule Name
  {3591bcc6-ba1b-4965-bce9-12828f301503}, !- People Activity Level Schedule Name
  {a6e3b4ec-c0c8-4119-b9de-a6010391408f}, !- Lighting Schedule Name
  {0002e439-b717-41b5-b8ae-f0ae41804c52}, !- Electric Equipment Schedule Name
  ,                                       !- Gas Equipment Schedule Name
  ,                                       !- Hot Water Equipment Schedule Name
  ,                                       !- Infiltration Schedule Name
  ,                                       !- Steam Equipment Schedule Name
  ;                                       !- Other Equipment Schedule Name

OS:Schedule:Ruleset,
  {0a7279a4-3ace-464e-b668-ed21b0b43b62}, !- Handle
  NECB-A-Occupancy,                       !- Name
  {b0b086df-1603-4cbd-8fd9-f151ffc390b5}, !- Schedule Type Limits Name
  {dca97996-2596-4ac0-9c30-938fac249ea4}; !- Default Day Schedule Name

OS:Schedule:Day,
  {dca97996-2596-4ac0-9c30-938fac249ea4}, !- Handle
  NECB-A-Occupancy Default,               !- Name
  {b0b086df-1603-4cbd-8fd9-f151ffc390b5}, !- Schedule Type Limits Name
  No,                                     !- Interpolate to Timestep
  7,                                      !- Hour 1
  0,                                      !- Minute 1
  0,                                      !- Value Until Time 1
  8,                                      !- Hour 2
  0,                                      !- Minute 2
  0.1,                                    !- Value Until Time 2
  9,                                      !- Hour 3
  0,                                      !- Minute 3
  0.7,                                    !- Value Until Time 3
  12,                                     !- Hour 4
  0,                                      !- Minute 4
  0.9,                                    !- Value Until Time 4
  14,                                     !- Hour 5
  0,                                      !- Minute 5
  0.5,                                    !- Value Until Time 5
  17,                                     !- Hour 6
  0,                                      !- Minute 6
  0.9,                                    !- Value Until Time 6
  18,                                     !- Hour 7
  0,                                      !- Minute 7
  0.7,                                    !- Value Until Time 7
  19,                                     !- Hour 8
  0,                                      !- Minute 8
  0.3,                                    !- Value Until Time 8
  23,                                     !- Hour 9
  0,                                      !- Minute 9
  0.1,                                    !- Value Until Time 9
  24,                                     !- Hour 10
  0,                                      !- Minute 10
  0;                                      !- Value Until Time 10

OS:Schedule:Rule,
  {b0933224-6b4a-42d6-b1c3-8e553525c309}, !- Handle
  Schedule Rule 2,                        !- Name
  {0a7279a4-3ace-464e-b668-ed21b0b43b62}, !- Schedule Ruleset Name
  2,                                      !- Rule Order
  {d2c37707-a7dc-469a-9768-a245105548cb}, !- Day Schedule Name
  ,                                       !- Apply Sunday
  Yes,                                    !- Apply Monday
  Yes,                                    !- Apply Tuesday
  Yes,                                    !- Apply Wednesday
  Yes,                                    !- Apply Thursday
  Yes,                                    !- Apply Friday
  ,                                       !- Apply Saturday
  DateRange,                              !- Date Specification Type
  1,                                      !- Start Month
  1,                                      !- Start Day
  12,                                     !- End Month
  31;                                     !- End Day

OS:Schedule:Day,
  {d2c37707-a7dc-469a-9768-a245105548cb}, !- Handle
  NECB-A-Occupancy Default|Wkdy Day,      !- Name
  {b0b086df-1603-4cbd-8fd9-f151ffc390b5}, !- Schedule Type Limits Name
  No,                                     !- Interpolate to Timestep
  7,                                      !- Hour 1
  0,                                      !- Minute 1
  0,                                      !- Value Until Time 1
  8,                                      !- Hour 2
  0,                                      !- Minute 2
  0.1,                                    !- Value Until Time 2
  9,                                      !- Hour 3
  0,                                      !- Minute 3
  0.7,                                    !- Value Until Time 3
  12,                                     !- Hour 4
  0,                                      !- Minute 4
  0.9,                                    !- Value Until Time 4
  14,                                     !- Hour 5
  0,                                      !- Minute 5
  0.5,                                    !- Value Until Time 5
  17,                                     !- Hour 6
  0,                                      !- Minute 6
  0.9,                                    !- Value Until Time 6
  18,                                     !- Hour 7
  0,                                      !- Minute 7
  0.7,                                    !- Value Until Time 7
  19,                                     !- Hour 8
  0,                                      !- Minute 8
  0.3,                                    !- Value Until Time 8
  23,                                     !- Hour 9
  0,                                      !- Minute 9
  0.1,                                    !- Value Until Time 9
  24,                                     !- Hour 10
  0,                                      !- Minute 10
  0;                                      !- Value Until Time 10

OS:Schedule:Rule,
  {39f23293-2b6a-4f42-aa6d-ad12e9810cfb}, !- Handle
  Schedule Rule 3,                        !- Name
  {0a7279a4-3ace-464e-b668-ed21b0b43b62}, !- Schedule Ruleset Name
  1,                                      !- Rule Order
  {9d9fdec4-d715-4d9c-81ea-c637789d3583}, !- Day Schedule Name
  ,                                       !- Apply Sunday
  ,                                       !- Apply Monday
  ,                                       !- Apply Tuesday
  ,                                       !- Apply Wednesday
  ,                                       !- Apply Thursday
  ,                                       !- Apply Friday
  Yes,                                    !- Apply Saturday
  DateRange,                              !- Date Specification Type
  1,                                      !- Start Month
  1,                                      !- Start Day
  12,                                     !- End Month
  31;                                     !- End Day

OS:Schedule:Day,
  {9d9fdec4-d715-4d9c-81ea-c637789d3583}, !- Handle
  NECB-A-Occupancy Sat Day,               !- Name
  {b0b086df-1603-4cbd-8fd9-f151ffc390b5}, !- Schedule Type Limits Name
  No,                                     !- Interpolate to Timestep
  24,                                     !- Hour 1
  0,                                      !- Minute 1
  0;                                      !- Value Until Time 1

OS:Schedule:Rule,
  {7d71ab83-bd86-47e8-b02c-7d7b69ff6053}, !- Handle
  Schedule Rule 4,                        !- Name
  {0a7279a4-3ace-464e-b668-ed21b0b43b62}, !- Schedule Ruleset Name
  0,                                      !- Rule Order
  {282a904d-5959-409e-a105-eb3ead0610d6}, !- Day Schedule Name
  Yes,                                    !- Apply Sunday
  ,                                       !- Apply Monday
  ,                                       !- Apply Tuesday
  ,                                       !- Apply Wednesday
  ,                                       !- Apply Thursday
  ,                                       !- Apply Friday
  ,                                       !- Apply Saturday
  DateRange,                              !- Date Specification Type
  1,                                      !- Start Month
  1,                                      !- Start Day
  12,                                     !- End Month
  31;                                     !- End Day

OS:Schedule:Day,
  {282a904d-5959-409e-a105-eb3ead0610d6}, !- Handle
  NECB-A-Occupancy Sun|Hol Day,           !- Name
  {b0b086df-1603-4cbd-8fd9-f151ffc390b5}, !- Schedule Type Limits Name
  No,                                     !- Interpolate to Timestep
  24,                                     !- Hour 1
  0,                                      !- Minute 1
  0;                                      !- Value Until Time 1

OS:Schedule:Ruleset,
  {3591bcc6-ba1b-4965-bce9-12828f301503}, !- Handle
  NECB-Activity,                          !- Name
  {9c850608-e1c7-4909-9b69-4f577e02b651}, !- Schedule Type Limits Name
  {b64fca45-1cda-43db-bfe0-7bfbdd3bb903}, !- Default Day Schedule Name
  {04e7b10e-9fb8-4af7-9e9d-56aca6cf8437}, !- Summer Design Day Schedule Name
  {a4220172-9ead-4d7b-853d-b1cfca3b8307}; !- Winter Design Day Schedule Name

OS:Schedule:Day,
  {b64fca45-1cda-43db-bfe0-7bfbdd3bb903}, !- Handle
  NECB-Activity Default,                  !- Name
  {9c850608-e1c7-4909-9b69-4f577e02b651}, !- Schedule Type Limits Name
  No,                                     !- Interpolate to Timestep
  24,                                     !- Hour 1
  0,                                      !- Minute 1
  130;                                    !- Value Until Time 1

OS:Schedule:Day,
  {b1b6138c-4dc8-445c-afac-6db9e49d9db9}, !- Handle
  Schedule Day 1,                         !- Name
  ,                                       !- Schedule Type Limits Name
  ,                                       !- Interpolate to Timestep
  24,                                     !- Hour 1
  0,                                      !- Minute 1
  0;                                      !- Value Until Time 1

OS:Schedule:Day,
  {a4220172-9ead-4d7b-853d-b1cfca3b8307}, !- Handle
  NECB-Activity Winter Design Day,        !- Name
  {9c850608-e1c7-4909-9b69-4f577e02b651}, !- Schedule Type Limits Name
  No,                                     !- Interpolate to Timestep
  24,                                     !- Hour 1
  0,                                      !- Minute 1
  130;                                    !- Value Until Time 1

OS:Schedule:Day,
  {1f559493-9f99-467a-adf8-a74b15532dba}, !- Handle
  Schedule Day 2,                         !- Name
  ,                                       !- Schedule Type Limits Name
  ,                                       !- Interpolate to Timestep
  24,                                     !- Hour 1
  0,                                      !- Minute 1
  0;                                      !- Value Until Time 1

OS:Schedule:Day,
  {04e7b10e-9fb8-4af7-9e9d-56aca6cf8437}, !- Handle
  NECB-Activity Summer Design Day,        !- Name
  {9c850608-e1c7-4909-9b69-4f577e02b651}, !- Schedule Type Limits Name
  No,                                     !- Interpolate to Timestep
  24,                                     !- Hour 1
  0,                                      !- Minute 1
  130;                                    !- Value Until Time 1

OS:ScheduleTypeLimits,
  {9c850608-e1c7-4909-9b69-4f577e02b651}, !- Handle
  ActivityLevel,                          !- Name
  0,                                      !- Lower Limit Value
  ,                                       !- Upper Limit Value
  Continuous,                             !- Numeric Type
  ActivityLevel;                          !- Unit Type

OS:Schedule:Ruleset,
  {a6e3b4ec-c0c8-4119-b9de-a6010391408f}, !- Handle
  NECB-A-Lighting,                        !- Name
  {b0b086df-1603-4cbd-8fd9-f151ffc390b5}, !- Schedule Type Limits Name
  {1c2fc6eb-e64c-474e-a4b5-352cbe8e1c24}; !- Default Day Schedule Name

OS:Schedule:Day,
  {1c2fc6eb-e64c-474e-a4b5-352cbe8e1c24}, !- Handle
  NECB-A-Lighting Default,                !- Name
  {b0b086df-1603-4cbd-8fd9-f151ffc390b5}, !- Schedule Type Limits Name
  No,                                     !- Interpolate to Timestep
  7,                                      !- Hour 1
  0,                                      !- Minute 1
  0.05,                                   !- Value Until Time 1
  8,                                      !- Hour 2
  0,                                      !- Minute 2
  0.3,                                    !- Value Until Time 2
  9,                                      !- Hour 3
  0,                                      !- Minute 3
  0.8,                                    !- Value Until Time 3
  17,                                     !- Hour 4
  0,                                      !- Minute 4
  0.9,                                    !- Value Until Time 4
  18,                                     !- Hour 5
  0,                                      !- Minute 5
  0.8,                                    !- Value Until Time 5
  19,                                     !- Hour 6
  0,                                      !- Minute 6
  0.5,                                    !- Value Until Time 6
  21,                                     !- Hour 7
  0,                                      !- Minute 7
  0.3,                                    !- Value Until Time 7
  23,                                     !- Hour 8
  0,                                      !- Minute 8
  0.1,                                    !- Value Until Time 8
  24,                                     !- Hour 9
  0,                                      !- Minute 9
  0.05;                                   !- Value Until Time 9

OS:Schedule:Rule,
  {650b9fc4-3c2e-432e-99cd-cfc577bf8b24}, !- Handle
  Schedule Rule 5,                        !- Name
  {a6e3b4ec-c0c8-4119-b9de-a6010391408f}, !- Schedule Ruleset Name
  2,                                      !- Rule Order
  {631fd246-1fa7-48ce-a3a6-0fc827d1d2dc}, !- Day Schedule Name
  ,                                       !- Apply Sunday
  Yes,                                    !- Apply Monday
  Yes,                                    !- Apply Tuesday
  Yes,                                    !- Apply Wednesday
  Yes,                                    !- Apply Thursday
  Yes,                                    !- Apply Friday
  ,                                       !- Apply Saturday
  DateRange,                              !- Date Specification Type
  1,                                      !- Start Month
  1,                                      !- Start Day
  12,                                     !- End Month
  31;                                     !- End Day

OS:Schedule:Day,
  {631fd246-1fa7-48ce-a3a6-0fc827d1d2dc}, !- Handle
  NECB-A-Lighting Default|Wkdy Day,       !- Name
  {b0b086df-1603-4cbd-8fd9-f151ffc390b5}, !- Schedule Type Limits Name
  No,                                     !- Interpolate to Timestep
  7,                                      !- Hour 1
  0,                                      !- Minute 1
  0.05,                                   !- Value Until Time 1
  8,                                      !- Hour 2
  0,                                      !- Minute 2
  0.3,                                    !- Value Until Time 2
  9,                                      !- Hour 3
  0,                                      !- Minute 3
  0.8,                                    !- Value Until Time 3
  17,                                     !- Hour 4
  0,                                      !- Minute 4
  0.9,                                    !- Value Until Time 4
  18,                                     !- Hour 5
  0,                                      !- Minute 5
  0.8,                                    !- Value Until Time 5
  19,                                     !- Hour 6
  0,                                      !- Minute 6
  0.5,                                    !- Value Until Time 6
  21,                                     !- Hour 7
  0,                                      !- Minute 7
  0.3,                                    !- Value Until Time 7
  23,                                     !- Hour 8
  0,                                      !- Minute 8
  0.1,                                    !- Value Until Time 8
  24,                                     !- Hour 9
  0,                                      !- Minute 9
  0.05;                                   !- Value Until Time 9

OS:Schedule:Rule,
  {3f932042-578c-484f-a0f9-fe07464b0065}, !- Handle
  Schedule Rule 6,                        !- Name
  {a6e3b4ec-c0c8-4119-b9de-a6010391408f}, !- Schedule Ruleset Name
  1,                                      !- Rule Order
  {6b3554cc-86d5-431a-be9a-6bab2caa75c6}, !- Day Schedule Name
  ,                                       !- Apply Sunday
  ,                                       !- Apply Monday
  ,                                       !- Apply Tuesday
  ,                                       !- Apply Wednesday
  ,                                       !- Apply Thursday
  ,                                       !- Apply Friday
  Yes,                                    !- Apply Saturday
  DateRange,                              !- Date Specification Type
  1,                                      !- Start Month
  1,                                      !- Start Day
  12,                                     !- End Month
  31;                                     !- End Day

OS:Schedule:Day,
  {6b3554cc-86d5-431a-be9a-6bab2caa75c6}, !- Handle
  NECB-A-Lighting Sat Day,                !- Name
  {b0b086df-1603-4cbd-8fd9-f151ffc390b5}, !- Schedule Type Limits Name
  No,                                     !- Interpolate to Timestep
  24,                                     !- Hour 1
  0,                                      !- Minute 1
  0.05;                                   !- Value Until Time 1

OS:Schedule:Rule,
  {fb8539c3-e3a0-4daf-bd0a-8e42a3efef2b}, !- Handle
  Schedule Rule 7,                        !- Name
  {a6e3b4ec-c0c8-4119-b9de-a6010391408f}, !- Schedule Ruleset Name
  0,                                      !- Rule Order
  {8dc0b11b-0121-49c0-abe8-4bee174c0c4d}, !- Day Schedule Name
  Yes,                                    !- Apply Sunday
  ,                                       !- Apply Monday
  ,                                       !- Apply Tuesday
  ,                                       !- Apply Wednesday
  ,                                       !- Apply Thursday
  ,                                       !- Apply Friday
  ,                                       !- Apply Saturday
  DateRange,                              !- Date Specification Type
  1,                                      !- Start Month
  1,                                      !- Start Day
  12,                                     !- End Month
  31;                                     !- End Day

OS:Schedule:Day,
  {8dc0b11b-0121-49c0-abe8-4bee174c0c4d}, !- Handle
  NECB-A-Lighting Sun|Hol Day,            !- Name
  {b0b086df-1603-4cbd-8fd9-f151ffc390b5}, !- Schedule Type Limits Name
  No,                                     !- Interpolate to Timestep
  24,                                     !- Hour 1
  0,                                      !- Minute 1
  0.05;                                   !- Value Until Time 1

OS:Schedule:Ruleset,
  {0002e439-b717-41b5-b8ae-f0ae41804c52}, !- Handle
  NECB-A-Electric-Equipment,              !- Name
  {b0b086df-1603-4cbd-8fd9-f151ffc390b5}, !- Schedule Type Limits Name
  {e317367c-b409-436e-a101-71ff581a0276}; !- Default Day Schedule Name

OS:Schedule:Day,
  {e317367c-b409-436e-a101-71ff581a0276}, !- Handle
  NECB-A-Electric-Equipment Default,      !- Name
  {b0b086df-1603-4cbd-8fd9-f151ffc390b5}, !- Schedule Type Limits Name
  No,                                     !- Interpolate to Timestep
  7,                                      !- Hour 1
  0,                                      !- Minute 1
  0.2,                                    !- Value Until Time 1
  8,                                      !- Hour 2
  0,                                      !- Minute 2
  0.3,                                    !- Value Until Time 2
  9,                                      !- Hour 3
  0,                                      !- Minute 3
  0.8,                                    !- Value Until Time 3
  18,                                     !- Hour 4
  0,                                      !- Minute 4
  0.9,                                    !- Value Until Time 4
  19,                                     !- Hour 5
  0,                                      !- Minute 5
  0.5,                                    !- Value Until Time 5
  21,                                     !- Hour 6
  0,                                      !- Minute 6
  0.3,                                    !- Value Until Time 6
  24,                                     !- Hour 7
  0,                                      !- Minute 7
  0.2;                                    !- Value Until Time 7

OS:Schedule:Rule,
  {747e5f32-0ebe-44de-b25c-1f3d26cda07e}, !- Handle
  Schedule Rule 8,                        !- Name
  {0002e439-b717-41b5-b8ae-f0ae41804c52}, !- Schedule Ruleset Name
  2,                                      !- Rule Order
  {cf5ffbe8-d221-4f43-9d17-80fbd4bb89dd}, !- Day Schedule Name
  ,                                       !- Apply Sunday
  Yes,                                    !- Apply Monday
  Yes,                                    !- Apply Tuesday
  Yes,                                    !- Apply Wednesday
  Yes,                                    !- Apply Thursday
  Yes,                                    !- Apply Friday
  ,                                       !- Apply Saturday
  DateRange,                              !- Date Specification Type
  1,                                      !- Start Month
  1,                                      !- Start Day
  12,                                     !- End Month
  31;                                     !- End Day

OS:Schedule:Day,
  {cf5ffbe8-d221-4f43-9d17-80fbd4bb89dd}, !- Handle
  NECB-A-Electric-Equipment Default|Wkdy Day, !- Name
  {b0b086df-1603-4cbd-8fd9-f151ffc390b5}, !- Schedule Type Limits Name
  No,                                     !- Interpolate to Timestep
  7,                                      !- Hour 1
  0,                                      !- Minute 1
  0.2,                                    !- Value Until Time 1
[...]
  Schedule Value,                         !- Actuated Component Control Type
  ;                                       !- Zone or Space Name

OS:EnergyManagementSystem:Program,
  {2544f076-d129-4910-bb3f-4c2016d9a622}, !- Handle
  ems_sys_4_mixed_shr_none_sc_dx_sh_c_e_ssf_cv_zh_b_hw_zc_none_srf_none__OptimumStartProg0, !- Name
  IF DaylightSavings==0 && DayOfWeek>1 && Hour==5 && {b250de7d-5b4a-42b4-a5e1-f8cfee7d1af1}<23.9 && {b250de7d-5b4a-42b4-a5e1-f8cfee7d1af1}>1.7, !- Program Line 1
  SET {8f987bf4-cfda-4c2b-955b-91f1b1450865} = 29.4, !- Program Line 2
  SET {f503907b-3a8d-4aea-9885-4e0f2404b3e2} = 15.6, !- Program Line 3
  ELSEIF DaylightSavings==0 && DayOfWeek==1 && Hour==7 && {b250de7d-5b4a-42b4-a5e1-f8cfee7d1af1}<23.9 && {b250de7d-5b4a-42b4-a5e1-f8cfee7d1af1}>1.7, !- Program Line 4
  SET {8f987bf4-cfda-4c2b-955b-91f1b1450865} = 29.4, !- Program Line 5
  SET {f503907b-3a8d-4aea-9885-4e0f2404b3e2} = 15.6, !- Program Line 6
  ELSEIF DaylightSavings==1 && DayOfWeek>1 && Hour==4 && {b250de7d-5b4a-42b4-a5e1-f8cfee7d1af1}<23.9 && {b250de7d-5b4a-42b4-a5e1-f8cfee7d1af1}>1.7, !- Program Line 7
  SET {8f987bf4-cfda-4c2b-955b-91f1b1450865} = 29.4, !- Program Line 8
  SET {f503907b-3a8d-4aea-9885-4e0f2404b3e2} = 15.6, !- Program Line 9
  ELSEIF DaylightSavings==1 && DayOfWeek==1 && Hour==6 && {b250de7d-5b4a-42b4-a5e1-f8cfee7d1af1}<23.9 && {b250de7d-5b4a-42b4-a5e1-f8cfee7d1af1}>1.7, !- Program Line 10
  SET {8f987bf4-cfda-4c2b-955b-91f1b1450865} = 29.4, !- Program Line 11
  SET {f503907b-3a8d-4aea-9885-4e0f2404b3e2} = 15.6, !- Program Line 12
  ELSE,                                   !- Program Line 13
  SET {8f987bf4-cfda-4c2b-955b-91f1b1450865} = NULL, !- Program Line 14
  SET {f503907b-3a8d-4aea-9885-4e0f2404b3e2} = NULL, !- Program Line 15
  ENDIF;                                  !- Program Line 16

OS:EnergyManagementSystem:ProgramCallingManager,
  {a577df5b-07b7-4de4-9c63-255d56ddc197}, !- Handle
  ems_sys_4_mixed_shr_none_sc_dx_sh_c_e_ssf_cv_zh_b_hw_zc_none_srf_none__OptimumStartCallingManager0, !- Name
  BeginTimestepBeforePredictor,           !- EnergyPlus Model Calling Point
  {2544f076-d129-4910-bb3f-4c2016d9a622}; !- Program Name 1

OS:AvailabilityManager:NightCycle,
  {32e66ca2-dde9-4055-a4e1-dd1f66a22b25}, !- Handle
  Availability Manager Night Cycle 3,     !- Name
  {9b5a6d31-77f0-4d0f-92fd-a10b910489e4}, !- Applicability Schedule
  ,                                       !- Fan Schedule
  CycleOnAny,                             !- Control Type
  1,                                      !- Thermostat Tolerance {deltaC}
  ,                                       !- Cycling Run Time Control Type
  3600,                                   !- Cycling Run Time {s}
  {10c5674c-478b-45cd-a069-f9dcb5f14729}, !- Control Zone or Zone List Name
  {4376d2ca-ab5a-4e39-9582-90f6195a11c6}, !- Cooling Control Zone or Zone List Name
  {2423fc8d-cc49-4e95-b130-040194d66bb0}, !- Heating Control Zone or Zone List Name
  {47e5a11d-bb18-453f-8512-0a97034bebfc}; !- Heating Zone Fans Only Zone or Zone List Name

OS:ModelObjectList,
  {10c5674c-478b-45cd-a069-f9dcb5f14729}, !- Handle
  Availability Manager Night Cycle 3 Control Zone List; !- Name

OS:ModelObjectList,
  {4376d2ca-ab5a-4e39-9582-90f6195a11c6}, !- Handle
  Availability Manager Night Cycle 3 Cooling Control Zone List; !- Name

OS:ModelObjectList,
  {2423fc8d-cc49-4e95-b130-040194d66bb0}, !- Handle
  Availability Manager Night Cycle 3 Heating Control Zone List; !- Name

OS:ModelObjectList,
  {47e5a11d-bb18-453f-8512-0a97034bebfc}, !- Handle
  Availability Manager Night Cycle 3 Heating Zone Fans Only Zone List; !- Name

OS:Schedule:Ruleset,
  {f067a70d-587c-43c3-8d2f-7d69f231b1cc}, !- Handle
  sys_4|mixed|shr>none|sc>dx|sh>c-e|ssf>cv|zh>b-hw|zc>none|srf>none| 1 Occ Sch, !- Name
  {b0b086df-1603-4cbd-8fd9-f151ffc390b5}, !- Schedule Type Limits Name
  {40b9a31c-5feb-44c1-ad91-c654679eba3e}, !- Default Day Schedule Name
  {496ef0f1-83f8-4394-91b9-00936237abf5}, !- Summer Design Day Schedule Name
  {852e3c27-e5dd-42d1-b9ed-d2f0bc4b94bc}; !- Winter Design Day Schedule Name

OS:Schedule:Day,
  {40b9a31c-5feb-44c1-ad91-c654679eba3e}, !- Handle
  sys_4|mixed|shr>none|sc>dx|sh>c-e|ssf>cv|zh>b-hw|zc>none|srf>none| 1 Occ Sch Default, !- Name
  {b0b086df-1603-4cbd-8fd9-f151ffc390b5}, !- Schedule Type Limits Name
  ,                                       !- Interpolate to Timestep
  8,                                      !- Hour 1
  0,                                      !- Minute 1
  0,                                      !- Value Until Time 1
  19,                                     !- Hour 2
  0,                                      !- Minute 2
  1,                                      !- Value Until Time 2
  24,                                     !- Hour 3
  0,                                      !- Minute 3
  0;                                      !- Value Until Time 3

OS:AdditionalProperties,
  {a9ad7520-1738-411d-8702-e47b3e599b06}, !- Handle
  {f067a70d-587c-43c3-8d2f-7d69f231b1cc}, !- Object Name
  max_occ_in_spaces,                      !- Feature Name 1
  Double,                                 !- Feature Data Type 1
  32.081870710131746,                     !- Feature Value 1
  number_of_spaces_included,              !- Feature Name 2
  Integer,                                !- Feature Data Type 2
  1,                                      !- Feature Value 2
  date_parent_object_last_edited,         !- Feature Name 3
  String,                                 !- Feature Data Type 3
  2025-10-15 15:59:56 UTC,                !- Feature Value 3
  date_parent_object_created,             !- Feature Name 4
  String,                                 !- Feature Data Type 4
  2025-10-15 15:59:56 UTC;                !- Feature Value 4

OS:Schedule:Day,
  {852e3c27-e5dd-42d1-b9ed-d2f0bc4b94bc}, !- Handle
  sys_4|mixed|shr>none|sc>dx|sh>c-e|ssf>cv|zh>b-hw|zc>none|srf>none| 1 Occ Sch Winter Design Day, !- Name
  {b0b086df-1603-4cbd-8fd9-f151ffc390b5}, !- Schedule Type Limits Name
  ,                                       !- Interpolate to Timestep
  24,                                     !- Hour 1
  0,                                      !- Minute 1
  1;                                      !- Value Until Time 1

OS:Schedule:Day,
  {496ef0f1-83f8-4394-91b9-00936237abf5}, !- Handle
  sys_4|mixed|shr>none|sc>dx|sh>c-e|ssf>cv|zh>b-hw|zc>none|srf>none| 1 Occ Sch Summer Design Day, !- Name
  {b0b086df-1603-4cbd-8fd9-f151ffc390b5}, !- Schedule Type Limits Name
  ,                                       !- Interpolate to Timestep
  24,                                     !- Hour 1
  0,                                      !- Minute 1
  1;                                      !- Value Until Time 1

OS:Schedule:Rule,
  {29ba5cee-bf8f-4aff-bffc-80e2b43bbb55}, !- Handle
  Schedule Rule 24,                       !- Name
  {f067a70d-587c-43c3-8d2f-7d69f231b1cc}, !- Schedule Ruleset Name
  1,                                      !- Rule Order
  {d0b1a5ca-ce5c-4fdf-b03a-efc8b7e69f96}, !- Day Schedule Name
  ,                                       !- Apply Sunday
  ,                                       !- Apply Monday
  ,                                       !- Apply Tuesday
  ,                                       !- Apply Wednesday
  ,                                       !- Apply Thursday
  ,                                       !- Apply Friday
  Yes,                                    !- Apply Saturday
  DateRange,                              !- Date Specification Type
  1,                                      !- Start Month
  7,                                      !- Start Day
  12,                                     !- End Month
  30;                                     !- End Day

OS:Schedule:Day,
  {d0b1a5ca-ce5c-4fdf-b03a-efc8b7e69f96}, !- Handle
  Schedule Day 9,                         !- Name
  {b0b086df-1603-4cbd-8fd9-f151ffc390b5}, !- Schedule Type Limits Name
  ,                                       !- Interpolate to Timestep
  24,                                     !- Hour 1
  0,                                      !- Minute 1
  0;                                      !- Value Until Time 1

OS:Schedule:Rule,
  {2be31f0b-01a9-484a-9789-74c57695f2b1}, !- Handle
  Schedule Rule 25,                       !- Name
  {f067a70d-587c-43c3-8d2f-7d69f231b1cc}, !- Schedule Ruleset Name
  0,                                      !- Rule Order
  {4dc57c04-7abf-4ff2-8a0c-c978bec46407}, !- Day Schedule Name
  Yes,                                    !- Apply Sunday
  ,                                       !- Apply Monday
  ,                                       !- Apply Tuesday
  ,                                       !- Apply Wednesday
  ,                                       !- Apply Thursday
  ,                                       !- Apply Friday
  ,                                       !- Apply Saturday
  DateRange,                              !- Date Specification Type
  1,                                      !- Start Month
  1,                                      !- Start Day
  12,                                     !- End Month
  31;                                     !- End Day

OS:Schedule:Day,
  {4dc57c04-7abf-4ff2-8a0c-c978bec46407}, !- Handle
  Schedule Day 10,                        !- Name
  {b0b086df-1603-4cbd-8fd9-f151ffc390b5}, !- Schedule Type Limits Name
  ,                                       !- Interpolate to Timestep
  24,                                     !- Hour 1
  0,                                      !- Minute 1
  0;                                      !- Value Until Time 1

OS:EnergyManagementSystem:Sensor,
  {3d6c8a96-c10e-49d7-8d4e-2dc47b466cfe}, !- Handle
  OAT_1,                                  !- Name
  Environment,                            !- Output Variable or Output Meter Index Key Name
  Site Outdoor Air Drybulb Temperature;   !- Output Variable or Output Meter Name

OS:EnergyManagementSystem:Actuator,
  {697ffd3c-10e4-4898-ac8f-489e75504858}, !- Handle
  ems_sys_4_mixed_shr_none_sc_dx_sh_c_e_ssf_cv_zh_b_hw_zc_none_srf_none__1_HtgSch0, !- Name
  {c4aa7596-3bdf-44b8-b274-efd5dee3398c}, !- Actuated Component Name
  Schedule:Year,                          !- Actuated Component Type
  Schedule Value,                         !- Actuated Component Control Type
  ;                                       !- Zone or Space Name

OS:EnergyManagementSystem:Actuator,
  {202f3476-4b3b-4359-a324-32cbe01fdc2f}, !- Handle
  ems_sys_4_mixed_shr_none_sc_dx_sh_c_e_ssf_cv_zh_b_hw_zc_none_srf_none__1_ClgSch0, !- Name
  {c79c92f4-bd9b-4076-8328-153f67511a05}, !- Actuated Component Name
  Schedule:Year,                          !- Actuated Component Type
  Schedule Value,                         !- Actuated Component Control Type
  ;                                       !- Zone or Space Name

OS:EnergyManagementSystem:Program,
  {25ba3e71-5e1d-4d89-b965-d5a3b82c9929}, !- Handle
  ems_sys_4_mixed_shr_none_sc_dx_sh_c_e_ssf_cv_zh_b_hw_zc_none_srf_none__1_OptimumStartProg0, !- Name
  IF DaylightSavings==0 && DayOfWeek>1 && Hour==5 && {3d6c8a96-c10e-49d7-8d4e-2dc47b466cfe}<23.9 && {3d6c8a96-c10e-49d7-8d4e-2dc47b466cfe}>1.7, !- Program Line 1
  SET {202f3476-4b3b-4359-a324-32cbe01fdc2f} = 29.4, !- Program Line 2
  SET {697ffd3c-10e4-4898-ac8f-489e75504858} = 15.6, !- Program Line 3
  ELSEIF DaylightSavings==0 && DayOfWeek==1 && Hour==7 && {3d6c8a96-c10e-49d7-8d4e-2dc47b466cfe}<23.9 && {3d6c8a96-c10e-49d7-8d4e-2dc47b466cfe}>1.7, !- Program Line 4
  SET {202f3476-4b3b-4359-a324-32cbe01fdc2f} = 29.4, !- Program Line 5
  SET {697ffd3c-10e4-4898-ac8f-489e75504858} = 15.6, !- Program Line 6
  ELSEIF DaylightSavings==1 && DayOfWeek>1 && Hour==4 && {3d6c8a96-c10e-49d7-8d4e-2dc47b466cfe}<23.9 && {3d6c8a96-c10e-49d7-8d4e-2dc47b466cfe}>1.7, !- Program Line 7
  SET {202f3476-4b3b-4359-a324-32cbe01fdc2f} = 29.4, !- Program Line 8
  SET {697ffd3c-10e4-4898-ac8f-489e75504858} = 15.6, !- Program Line 9
  ELSEIF DaylightSavings==1 && DayOfWeek==1 && Hour==6 && {3d6c8a96-c10e-49d7-8d4e-2dc47b466cfe}<23.9 && {3d6c8a96-c10e-49d7-8d4e-2dc47b466cfe}>1.7, !- Program Line 10
  SET {202f3476-4b3b-4359-a324-32cbe01fdc2f} = 29.4, !- Program Line 11
  SET {697ffd3c-10e4-4898-ac8f-489e75504858} = 15.6, !- Program Line 12
  ELSE,                                   !- Program Line 13
  SET {202f3476-4b3b-4359-a324-32cbe01fdc2f} = NULL, !- Program Line 14
  SET {697ffd3c-10e4-4898-ac8f-489e75504858} = NULL, !- Program Line 15
  ENDIF;                                  !- Program Line 16

OS:EnergyManagementSystem:ProgramCallingManager,
  {d428f566-7597-46a2-9ecf-68302ca98c31}, !- Handle
  ems_sys_4_mixed_shr_none_sc_dx_sh_c_e_ssf_cv_zh_b_hw_zc_none_srf_none__1_OptimumStartCallingManager0, !- Name
  BeginTimestepBeforePredictor,           !- EnergyPlus Model Calling Point
  {25ba3e71-5e1d-4d89-b965-d5a3b82c9929}; !- Program Name 1

OS:Curve:Biquadratic,
  {36119176-acc5-4542-87de-b805672f9469}, !- Handle
  DXCOOL-NECB2011-REF-CAPFT,              !- Name
  0.867905,                               !- Coefficient1 Constant
  0.0142459,                              !- Coefficient2 x
  0.00055436,                             !- Coefficient3 x**2
  -0.0075575,                             !- Coefficient4 y
  3.3e-05,                                !- Coefficient5 y**2
  -0.0001918,                             !- Coefficient6 x*y
  13,                                     !- Minimum Value of x
  24,                                     !- Maximum Value of x
  24,                                     !- Minimum Value of y
  46;                                     !- Maximum Value of y

OS:Curve:Quadratic,
  {1a1618e0-c107-4144-ba4f-e91e57833bf1}, !- Handle
  DXCOOL-NECB2011-REF-CAPFFLOW,           !- Name
  0.8,                                    !- Coefficient1 Constant
  0.2,                                    !- Coefficient2 x
  0,                                      !- Coefficient3 x**2
  0.5,                                    !- Minimum Value of x
  1.5;                                    !- Maximum Value of x

OS:Curve:Biquadratic,
  {3118fd23-0072-40fb-943e-6ab44269186e}, !- Handle
  DXCOOL-NECB2011-REF-COOLEIRFT,          !- Name
  0.1141714,                              !- Coefficient1 Constant
  0.02818224,                             !- Coefficient2 x
  -0.0004199,                             !- Coefficient3 x**2
  0.02141082,                             !- Coefficient4 y
  0.000161028,                            !- Coefficient5 y**2
  -0.000679104,                           !- Coefficient6 x*y
  13,                                     !- Minimum Value of x
  24,                                     !- Maximum Value of x
  24,                                     !- Minimum Value of y
  46;                                     !- Maximum Value of y

OS:Curve:Quadratic,
  {792a97e9-180d-48da-aaf6-e03cc6daeba1}, !- Handle
  DXCOOL-NECB2011-REF-COOLEIRFFLOW,       !- Name
  1.1552,                                 !- Coefficient1 Constant
  -0.1808,                                !- Coefficient2 x
  0.0256,                                 !- Coefficient3 x**2
  0.5,                                    !- Minimum Value of x
  1.5;                                    !- Maximum Value of x

OS:Curve:Cubic,
  {4e3702af-f977-4a5e-902c-7eee89ff7a4c}, !- Handle
  DXCOOL-NECB2011-REF-COOLPLFFPLR,        !- Name
  0.0277,                                 !- Coefficient1 Constant
  4.9151,                                 !- Coefficient2 x
  -8.184,                                 !- Coefficient3 x**2
  4.2702,                                 !- Coefficient4 x**3
  0.7,                                    !- Minimum Value of x
  1;                                      !- Maximum Value of x

OS:Curve:Cubic,
  {49ee337e-852e-4715-bb8c-f3c86b43596e}, !- Handle
  BOILER-EFFFPLR-NECB2011,                !- Name
  0.3831,                                 !- Coefficient1 Constant
  2.0567,                                 !- Coefficient2 x
  -2.6469,                                !- Coefficient3 x**2
  1.2148,                                 !- Coefficient4 x**3
  0,                                      !- Minimum Value of x
  1;                                      !- Maximum Value of x

OS:Curve:Cubic,
  {3bd38479-0f36-4999-ad6a-647758c80e99}, !- Handle
  SWH-EFFFPLR-NECB2011,                   !- Name
  0.7576,                                 !- Coefficient1 Constant
  1.0071,                                 !- Coefficient2 x
  -1.4443,                                !- Coefficient3 x**2
  0.6844,                                 !- Coefficient4 x**3
  0,                                      !- Minimum Value of x
  1;                                      !- Maximum Value of x

OS:Daylighting:Control,
  {b8b66192-08ad-417a-9ced-4d13b33f6d93}, !- Handle
  Zone1 Office daylighting control,       !- Name
  {12c3d4a0-20ec-4e1f-8040-e70cdfba4a69}, !- Space Name
  12.9533682747483,                       !- Position X-Coordinate {m}
  4.57177703814646,                       !- Position Y-Coordinate {m}
  0.8,                                    !- Position Z-Coordinate {m}
  ,                                       !- Psi Rotation Around X-Axis {deg}
  ,                                       !- Theta Rotation Around Y-Axis {deg}
  ,                                       !- Phi Rotation Around Z-Axis {deg}
  400,                                    !- Illuminance Setpoint {lux}
  Stepped,                                !- Lighting Control Type
  ,                                       !- Minimum Input Power Fraction for Continuous Dimming Control
  ,                                       !- Minimum Light Output Fraction for Continuous Dimming Control
  2;                                      !- Number of Stepped Control Steps

OS:Daylighting:Control,
  {fdd45c27-466d-48aa-8e6d-ccc15f174d20}, !- Handle
  Zone2 Fine Storage daylighting control, !- Name
  {cdd6a95f-f907-4c0e-817d-962525d358d0}, !- Space Name
  22.8588851907324,                       !- Position X-Coordinate {m}
  15.2392567938215,                       !- Position Y-Coordinate {m}
  0.8,                                    !- Position Z-Coordinate {m}
  ,                                       !- Psi Rotation Around X-Axis {deg}
  ,                                       !- Theta Rotation Around Y-Axis {deg}
  ,                                       !- Phi Rotation Around Z-Axis {deg}
  300,                                    !- Illuminance Setpoint {lux}
  Stepped,                                !- Lighting Control Type
  ,                                       !- Minimum Input Power Fraction for Continuous Dimming Control
  ,                                       !- Minimum Light Output Fraction for Continuous Dimming Control
  2;                                      !- Number of Stepped Control Steps

OS:Daylighting:Control,
  {355b11fc-54db-4c75-8259-2006ee8f2155}, !- Handle
  Zone3 Bulk Storage daylighting control, !- Name
  {39655c19-15b3-4081-92c2-4613ae84d8e6}, !- Space Name
  22.8588851907324,                       !- Position X-Coordinate {m}
  65.5288042134326,                       !- Position Y-Coordinate {m}
  0.8,                                    !- Position Z-Coordinate {m}
  ,                                       !- Psi Rotation Around X-Axis {deg}
  ,                                       !- Theta Rotation Around Y-Axis {deg}
  ,                                       !- Phi Rotation Around Z-Axis {deg}
  200,                                    !- Illuminance Setpoint {lux}
  Stepped,                                !- Lighting Control Type
  ,                                       !- Minimum Input Power Fraction for Continuous Dimming Control
  ,                                       !- Minimum Light Output Fraction for Continuous Dimming Control
  2;                                      !- Number of Stepped Control Steps

