{
   "completed_at" : "20180129T211748Z",
   "completed_status" : "Fail",
   "created_at" : "20180129T211453Z",
   "current_step" : 0,
   "eplusout_err" : "Program Version,EnergyPlus, Version 8.7.0-78a111df4a, YMD=2018.01.29 21:17,IDD_Version 8.7.0\n   ** Warning ** CheckEnvironmentSpecifications: SimulationControl specified doing weather simulations; run periods for weather file specified; but no weather file specified.\n   ************* Beginning Zone Sizing Calculations\n   ** Warning ** Weather Environment(s) requested, but no weather file found\n   ** Warning ** ProcessScheduleInput: Schedule:Constant=\"ALWAYS OFF DISCRETE\", Blank Schedule Type Limits Name input -- will not be validated.\n   ** Warning ** ProcessScheduleInput: Schedule:Constant=\"ALWAYS ON CONTINUOUS\", Blank Schedule Type Limits Name input -- will not be validated.\n   ** Warning ** GetHTSurfaceData: Surfaces with interface to Ground found but no \"Ground Temperatures\" were input.\n   **   ~~~   ** Found first in surface=SURFACE 19\n   **   ~~~   ** Defaults, constant throughout the year of (18.0) will be used.\n   ** Warning ** CheckUsedConstructions: There are 276 nominally unused constructions in input.\n   **   ~~~   ** For explicit details on each unused construction, use Output:Diagnostics,DisplayExtraWarnings;\n   ** Warning ** Output:Meter: invalid Name=\"GAS:FACILITY\" - not found.\n   ** Warning ** Output:Meter:MeterFileOnly: invalid Name=\"GAS:FACILITY\" - not found.\n   ** Warning ** Output:Meter:MeterFileOnly requested for \"Electricity:Facility\" (TimeStep), already on \"Output:Meter\". Will report to both eplusout.eso and eplusout.mtr\n   ************* Testing Individual Branch Integrity\n   ************* All Branches passed integrity testing\n   ************* Testing Individual Supply Air Path Integrity\n   ************* All Supply Air Paths passed integrity testing\n   ************* Testing Individual Return Air Path Integrity\n   ************* All Return Air Paths passed integrity testing\n   ************* No node connection errors were found.\n   ************* Beginning Simulation\n   ** Severe  ** Weather Simulation requested, but no weather file attached.\n   ** Severe  ** GetNextEnvironment: Errors found in getting a new environment\n   **  Fatal  ** Error condition occurred.  Previous Severe Errors cause termination.\n   ...Summary of Errors that led to program termination:\n   ..... Reference severe error count=2\n   ..... Last severe error=GetNextEnvironment: Errors found in getting a new environment\n   ************* Warning:  Node connection errors not checked - most system input has not been read (see previous warning).\n   ************* Fatal error -- final processing.  Program exited before simulations began.  See previous error messages.\n   *************\n   ************* ===== Final Error Summary =====\n   ************* The following error categories occurred.  Consider correcting or noting.\n   ************* Nominally Unused Constructions\n   ************* ..The nominally unused constructions warning is provided to alert you to potential conditions that can cause\n   ************* ..extra time during simulation. Each construction is calculated by the algorithm indicated in the HeatBalanceAlgorithm\n   ************* ..object. You may remove the constructions indicated (when you use the DisplayExtraWarnings option).\n   *************\n   ************* EnergyPlus Warmup Error Summary. During Warmup: 0 Warning; 2 Severe Errors.\n   ************* EnergyPlus Sizing Error Summary. During Sizing: 5 Warning; 0 Severe Errors.\n   ************* EnergyPlus Terminated--Fatal Error Detected. 9 Warning; 2 Severe Errors; Elapsed Time=00hr 00min  3.41sec\n",
   "hash" : "05A00A96",
   "seed_file" : "../5ZoneNoHVAC.osm",
   "started_at" : "20180129T211733Z",
   "steps" : [],
   "updated_at" : "20180129T211748Z"
}
