
OS:Version,
  {65c43bd8-765d-4536-91b3-fd3072a8ea93}, !- Handle
  3.9.0;                                  !- Version Identifier

OS:ScheduleTypeLimits,
  {eacc4041-d5cd-419f-8c2a-d2712adc1fa6}, !- Handle
  Always On Discrete Limits,              !- Name
  0,                                      !- Lower Limit Value
  1,                                      !- Upper Limit Value
  Discrete,                               !- Numeric Type
  Availability;                           !- Unit Type

OS:Site,
  {780cebd4-d970-49f6-8a67-996a6b51b6bf}, !- Handle
  Vancouver Intl AP_BC_CAN,               !- Name
  49.19,                                  !- Latitude {deg}
  -123.18,                                !- Longitude {deg}
  -8,                                     !- Time Zone {hr}
  4.3,                                    !- Elevation {m}
  City;                                   !- Terrain

OS:SimulationControl,
  {8e6d581c-8bc1-4ad1-93a1-3671638d2d44}, !- Handle
  Yes,                                    !- Do Zone Sizing Calculation
  Yes,                                    !- Do System Sizing Calculation
  Yes,                                    !- Do Plant Sizing Calculation
  No,                                     !- Run Simulation for Sizing Periods
  Yes,                                    !- Run Simulation for Weather File Run Periods
  0.04,                                   !- Loads Convergence Tolerance Value {W}
  0.2,                                    !- Temperature Convergence Tolerance Value {deltaC}
  FullInteriorAndExterior,                !- Solar Distribution
  25,                                     !- Maximum Number of Warmup Days
  6,                                      !- Minimum Number of Warmup Days
  No,                                     !- Do HVAC Sizing Simulation for Sizing Periods
  1;                                      !- Maximum Number of HVAC Sizing Simulation Passes

OS:Surface,
  {f92df46b-44ed-4bc4-a65b-b4687c727c14}, !- Handle
  Kitchen_Ceiling,                        !- Name
  RoofCeiling,                            !- Surface Type
  ,                                       !- Construction Name
  {77d3cfbe-7d30-4aaf-86db-75976a798830}, !- Space Name
  Surface,                                !- Outside Boundary Condition
  {99a3fb5b-eea2-4c47-b391-cc45f8583bd0}, !- Outside Boundary Condition Object
  NoSun,                                  !- Sun Exposure
  NoWind,                                 !- Wind Exposure
  ,                                       !- View Factor to Ground
  ,                                       !- Number of Vertices
  22.6087, 16.4427, 3.0488,               !- X,Y,Z Vertex 1 {m}
  22.6087, 22.6087, 3.0488,               !- X,Y,Z Vertex 2 {m}
  0, 22.6087, 3.0488,                     !- X,Y,Z Vertex 3 {m}
  0, 16.4427, 3.0488;                     !- X,Y,Z Vertex 4 {m}

OS:Space,
  {77d3cfbe-7d30-4aaf-86db-75976a798830}, !- Handle
  Kitchen,                                !- Name
  {f72f339a-7251-400d-abf7-c267ec6d3b23}, !- Space Type Name
  ,                                       !- Default Construction Set Name
  ,                                       !- Default Schedule Set Name
  0,                                      !- Direction of Relative North {deg}
  0,                                      !- X Origin {m}
  0,                                      !- Y Origin {m}
  0,                                      !- Z Origin {m}
  {28f49d8d-3737-4296-b4ec-3bf67b00f788}, !- Building Story Name
  {4c4f69f6-034b-40a2-a180-4ea2fbb1ba7e}, !- Thermal Zone Name
  Yes,                                    !- Part of Total Floor Area
  ,                                       !- Design Specification Outdoor Air Object Name
  ,                                       !- Building Unit Name
  Autocalculate;                          !- Volume {m3}

OS:Output:Meter,
  {2c504f0f-1677-4791-a625-c9fdceff2175}, !- Handle
  ElectricityNet:Facility,                !- Name
  Hourly,                                 !- Reporting Frequency
  True,                                   !- Meter File Only
  False;                                  !- Cumulative

OS:Surface,
  {a98a3d24-77be-4dd8-9ea4-dce8b4b21baf}, !- Handle
  Dining_Wall_South,                      !- Name
  Wall,                                   !- Surface Type
  ,                                       !- Construction Name
  {d48cb50c-3a07-4ed6-baac-fe451a3f5495}, !- Space Name
  Outdoors,                               !- Outside Boundary Condition
  ,                                       !- Outside Boundary Condition Object
  SunExposed,                             !- Sun Exposure
  WindExposed,                            !- Wind Exposure
  ,                                       !- View Factor to Ground
  ,                                       !- Number of Vertices
  0, 0, 3.0488,                           !- X,Y,Z Vertex 1 {m}
  0, 0, 0,                                !- X,Y,Z Vertex 2 {m}
  22.6087, 0, 0,                          !- X,Y,Z Vertex 3 {m}
  22.6087, 0, 3.0488;                     !- X,Y,Z Vertex 4 {m}

OS:Space,
  {d48cb50c-3a07-4ed6-baac-fe451a3f5495}, !- Handle
  Dining,                                 !- Name
  {74d79ecf-87d4-4cbb-ba37-86cfde5c20bb}, !- Space Type Name
  ,                                       !- Default Construction Set Name
  ,                                       !- Default Schedule Set Name
  0,                                      !- Direction of Relative North {deg}
  0,                                      !- X Origin {m}
  0,                                      !- Y Origin {m}
  0,                                      !- Z Origin {m}
  {28f49d8d-3737-4296-b4ec-3bf67b00f788}, !- Building Story Name
  {db99ed15-91c6-459a-a7ea-2cfeabda7bfa}, !- Thermal Zone Name
  Yes,                                    !- Part of Total Floor Area
  ,                                       !- Design Specification Outdoor Air Object Name
  ,                                       !- Building Unit Name
  Autocalculate;                          !- Volume {m3}

OS:Surface,
  {2d02da2f-1bea-4fb4-b48e-f0da184c6074}, !- Handle
  north-roof,                             !- Name
  RoofCeiling,                            !- Surface Type
  ,                                       !- Construction Name
  {a6d9b45b-2723-43c6-8355-1e3d52bed681}, !- Space Name
  Outdoors,                               !- Outside Boundary Condition
  ,                                       !- Outside Boundary Condition Object
  SunExposed,                             !- Sun Exposure
  WindExposed,                            !- Wind Exposure
  ,                                       !- View Factor to Ground
  ,                                       !- Number of Vertices
  11.3044, 18.8397, 3.7692,               !- X,Y,Z Vertex 1 {m}
  22.6087, 22.6087, 0,                    !- X,Y,Z Vertex 2 {m}
  0, 22.6087, 0;                          !- X,Y,Z Vertex 3 {m}

OS:Space,
  {a6d9b45b-2723-43c6-8355-1e3d52bed681}, !- Handle
  attic,                                  !- Name
  {73bc1497-600d-436a-a675-cd1456fcf9ac}, !- Space Type Name
  ,                                       !- Default Construction Set Name
  ,                                       !- Default Schedule Set Name
  0,                                      !- Direction of Relative North {deg}
  0,                                      !- X Origin {m}
  0,                                      !- Y Origin {m}
  3.0488,                                 !- Z Origin {m}
  {f0fd8038-c2dd-4caa-93ad-11e3bdfa35ec}, !- Building Story Name
  {6b87e9a8-bcc7-4f68-85a3-9b25a4e96434}, !- Thermal Zone Name
  No,                                     !- Part of Total Floor Area
  ,                                       !- Design Specification Outdoor Air Object Name
  ,                                       !- Building Unit Name
  Autocalculate;                          !- Volume {m3}

OS:Surface,
  {628c7363-89f7-4a36-b959-b9f52e0cab7c}, !- Handle
  Kitchen_Wall_North,                     !- Name
  Wall,                                   !- Surface Type
  ,                                       !- Construction Name
  {77d3cfbe-7d30-4aaf-86db-75976a798830}, !- Space Name
  Outdoors,                               !- Outside Boundary Condition
  ,                                       !- Outside Boundary Condition Object
  SunExposed,                             !- Sun Exposure
  WindExposed,                            !- Wind Exposure
  ,                                       !- View Factor to Ground
  ,                                       !- Number of Vertices
  22.6087, 22.6087, 3.0488,               !- X,Y,Z Vertex 1 {m}
  22.6087, 22.6087, 0,                    !- X,Y,Z Vertex 2 {m}
  0, 22.6087, 0,                          !- X,Y,Z Vertex 3 {m}
  0, 22.6087, 3.0488;                     !- X,Y,Z Vertex 4 {m}

OS:Surface,
  {c8a19cd4-2eef-4dab-9ff8-b3cd1bd596db}, !- Handle
  south-roof,                             !- Name
  RoofCeiling,                            !- Surface Type
  ,                                       !- Construction Name
  {a6d9b45b-2723-43c6-8355-1e3d52bed681}, !- Space Name
  Outdoors,                               !- Outside Boundary Condition
  ,                                       !- Outside Boundary Condition Object
  SunExposed,                             !- Sun Exposure
  WindExposed,                            !- Wind Exposure
  ,                                       !- View Factor to Ground
  ,                                       !- Number of Vertices
  11.3044, 3.769, 3.7692,                 !- X,Y,Z Vertex 1 {m}
  -1.73917179908584e-034, -6.74580236774689e-017, 6.7454444242911e-017, !- X,Y,Z Vertex 2 {m}
  22.6087, -9.66039263974126e-017, 9.65988004329428e-017; !- X,Y,Z Vertex 3 {m}

OS:Surface,
  {80882478-4818-4b6c-a701-0a4f97af99ea}, !- Handle
  Dining_Wall_East,                       !- Name
  Wall,                                   !- Surface Type
  ,                                       !- Construction Name
  {d48cb50c-3a07-4ed6-baac-fe451a3f5495}, !- Space Name
  Outdoors,                               !- Outside Boundary Condition
  ,                                       !- Outside Boundary Condition Object
  SunExposed,                             !- Sun Exposure
  WindExposed,                            !- Wind Exposure
  ,                                       !- View Factor to Ground
  ,                                       !- Number of Vertices
  22.6087, 0, 3.0488,                     !- X,Y,Z Vertex 1 {m}
  22.6087, 0, 0,                          !- X,Y,Z Vertex 2 {m}
  22.6087, 16.4427, 0,                    !- X,Y,Z Vertex 3 {m}
  22.6087, 16.4427, 3.0488;               !- X,Y,Z Vertex 4 {m}

OS:Timestep,
  {79cc9340-93d4-4f72-a5ca-b64451a57564}, !- Handle
  6;                                      !- Number of Timesteps per Hour

OS:Surface,
  {8f0d9014-6f65-4cc2-a0bf-390dce688306}, !- Handle
  Dining_Wall_West,                       !- Name
  Wall,                                   !- Surface Type
  ,                                       !- Construction Name
  {d48cb50c-3a07-4ed6-baac-fe451a3f5495}, !- Space Name
  Outdoors,                               !- Outside Boundary Condition
  ,                                       !- Outside Boundary Condition Object
  SunExposed,                             !- Sun Exposure
  WindExposed,                            !- Wind Exposure
  ,                                       !- View Factor to Ground
  ,                                       !- Number of Vertices
  0, 16.4427, 3.0488,                     !- X,Y,Z Vertex 1 {m}
  0, 16.4427, 0,                          !- X,Y,Z Vertex 2 {m}
  0, 0, 0,                                !- X,Y,Z Vertex 3 {m}
  0, 0, 3.0488;                           !- X,Y,Z Vertex 4 {m}

OS:Surface,
  {cb50c49a-cbad-4855-96c4-0782e1d597c9}, !- Handle
  Dining_Floor,                           !- Name
  Floor,                                  !- Surface Type
  {0cca5cb0-35c3-43dd-93d4-c32702ffaa8b}, !- Construction Name
  {d48cb50c-3a07-4ed6-baac-fe451a3f5495}, !- Space Name
  Foundation,                             !- Outside Boundary Condition
  {125b6ec8-bbfd-4941-947b-e9e49488c449}, !- Outside Boundary Condition Object
  NoSun,                                  !- Sun Exposure
  NoWind,                                 !- Wind Exposure
  ,                                       !- View Factor to Ground
  ,                                       !- Number of Vertices
  22.6087, 16.4427, 0,                    !- X,Y,Z Vertex 1 {m}
  22.6087, 0, 0,                          !- X,Y,Z Vertex 2 {m}
  0, 0, 0,                                !- X,Y,Z Vertex 3 {m}
  0, 16.4427, 0;                          !- X,Y,Z Vertex 4 {m}

OS:Surface,
  {ff63dcc8-88a6-4e75-a736-a16ea7374519}, !- Handle
  Dining_Ceiling,                         !- Name
  RoofCeiling,                            !- Surface Type
  ,                                       !- Construction Name
  {d48cb50c-3a07-4ed6-baac-fe451a3f5495}, !- Space Name
  Surface,                                !- Outside Boundary Condition
  {60fffe8d-e21f-43c1-9f06-30986f76ee3e}, !- Outside Boundary Condition Object
  NoSun,                                  !- Sun Exposure
  NoWind,                                 !- Wind Exposure
  ,                                       !- View Factor to Ground
  ,                                       !- Number of Vertices
  22.6087, 0, 3.0488,                     !- X,Y,Z Vertex 1 {m}
  22.6087, 16.4427, 3.0488,               !- X,Y,Z Vertex 2 {m}
  0, 16.4427, 3.0488,                     !- X,Y,Z Vertex 3 {m}
  0, 0, 3.0488;                           !- X,Y,Z Vertex 4 {m}

OS:Surface,
  {15bdfbf5-28b3-4f6b-939c-af2a310fc326}, !- Handle
  west-roof,                              !- Name
  RoofCeiling,                            !- Surface Type
  ,                                       !- Construction Name
  {a6d9b45b-2723-43c6-8355-1e3d52bed681}, !- Space Name
  Outdoors,                               !- Outside Boundary Condition
  ,                                       !- Outside Boundary Condition Object
  SunExposed,                             !- Sun Exposure
  WindExposed,                            !- Wind Exposure
  ,                                       !- View Factor to Ground
  ,                                       !- Number of Vertices
  11.3044, 18.8397, 3.7692,               !- X,Y,Z Vertex 1 {m}
  -1.57308521999447e-016, 22.6087, 4.71792013183315e-016, !- X,Y,Z Vertex 2 {m}
  -1.1417329679585e-016, -2.17720723655857e-033, 3.42422958797359e-016, !- X,Y,Z Vertex 3 {m}
  11.3044, 3.769, 3.7692;                 !- X,Y,Z Vertex 4 {m}

OS:Surface,
  {b8b44463-bcda-4673-8d04-2c845d134292}, !- Handle
  Kitchen_Wall_West,                      !- Name
  Wall,                                   !- Surface Type
  ,                                       !- Construction Name
  {77d3cfbe-7d30-4aaf-86db-75976a798830}, !- Space Name
  Outdoors,                               !- Outside Boundary Condition
  ,                                       !- Outside Boundary Condition Object
  SunExposed,                             !- Sun Exposure
  WindExposed,                            !- Wind Exposure
  ,                                       !- View Factor to Ground
  ,                                       !- Number of Vertices
  0, 22.6087, 3.0488,                     !- X,Y,Z Vertex 1 {m}
  0, 22.6087, 0,                          !- X,Y,Z Vertex 2 {m}
  0, 16.4427, 0,                          !- X,Y,Z Vertex 3 {m}
  0, 16.4427, 3.0488;                     !- X,Y,Z Vertex 4 {m}

OS:Surface,
  {18d25d92-d723-4017-980c-f20184bc1dd2}, !- Handle
  Dining_Wall_North-PPAutoCreateOther,    !- Name
  Wall,                                   !- Surface Type
  ,                                       !- Construction Name
  {77d3cfbe-7d30-4aaf-86db-75976a798830}, !- Space Name
  Surface,                                !- Outside Boundary Condition
  {1bf4d799-b7fc-481e-b40e-29c78d189519}, !- Outside Boundary Condition Object
  NoSun,                                  !- Sun Exposure
  NoWind,                                 !- Wind Exposure
  ,                                       !- View Factor to Ground
  ,                                       !- Number of Vertices
  0, 16.4427, 3.0488,                     !- X,Y,Z Vertex 1 {m}
  0, 16.4427, 0,                          !- X,Y,Z Vertex 2 {m}
  22.6087, 16.4427, 0,                    !- X,Y,Z Vertex 3 {m}
  22.6087, 16.4427, 3.0488;               !- X,Y,Z Vertex 4 {m}

OS:ShadowCalculation,
  {137b265b-7d90-4b85-83d6-6f49d95bdf56}, !- Handle
  PolygonClipping,                        !- Shading Calculation Method
  ,                                       !- Shading Calculation Update Frequency Method
  7,                                      !- Shading Calculation Update Frequency
  15000,                                  !- Maximum Figures in Shadow Overlap Calculations
  ,                                       !- Polygon Clipping Algorithm
  512,                                    !- Pixel Counting Resolution
  ,                                       !- Sky Diffuse Modeling Algorithm
  No,                                     !- Output External Shading Calculation Results
  No,                                     !- Disable Self-Shading Within Shading Zone Groups
  No;                                     !- Disable Self-Shading From Shading Zone Groups to Other Zones

OS:Surface,
  {60fffe8d-e21f-43c1-9f06-30986f76ee3e}, !- Handle
  attic-floor-dinning,                    !- Name
  Floor,                                  !- Surface Type
  ,                                       !- Construction Name
  {a6d9b45b-2723-43c6-8355-1e3d52bed681}, !- Space Name
  Surface,                                !- Outside Boundary Condition
  {ff63dcc8-88a6-4e75-a736-a16ea7374519}, !- Outside Boundary Condition Object
  NoSun,                                  !- Sun Exposure
  NoWind,                                 !- Wind Exposure
  ,                                       !- View Factor to Ground
  ,                                       !- Number of Vertices
  22.6087, 16.4427, 0,                    !- X,Y,Z Vertex 1 {m}
  22.6087, 0, 0,                          !- X,Y,Z Vertex 2 {m}
  0, 0, 0,                                !- X,Y,Z Vertex 3 {m}
  0, 16.4427, 0;                          !- X,Y,Z Vertex 4 {m}

OS:Surface,
  {99a3fb5b-eea2-4c47-b391-cc45f8583bd0}, !- Handle
  attic-floor-kitchen,                    !- Name
  Floor,                                  !- Surface Type
  ,                                       !- Construction Name
  {a6d9b45b-2723-43c6-8355-1e3d52bed681}, !- Space Name
  Surface,                                !- Outside Boundary Condition
  {f92df46b-44ed-4bc4-a65b-b4687c727c14}, !- Outside Boundary Condition Object
  NoSun,                                  !- Sun Exposure
  NoWind,                                 !- Wind Exposure
  ,                                       !- View Factor to Ground
  ,                                       !- Number of Vertices
  22.6087, 22.6087, 0,                    !- X,Y,Z Vertex 1 {m}
  22.6087, 16.4427, 0,                    !- X,Y,Z Vertex 2 {m}
  0, 16.4427, 0,                          !- X,Y,Z Vertex 3 {m}
  0, 22.6087, 0;                          !- X,Y,Z Vertex 4 {m}

OS:Surface,
  {f5f1a811-415b-4d09-b2da-ccbe1f40d3a2}, !- Handle
  Kitchen_Floor,                          !- Name
  Floor,                                  !- Surface Type
  {0cca5cb0-35c3-43dd-93d4-c32702ffaa8b}, !- Construction Name
  {77d3cfbe-7d30-4aaf-86db-75976a798830}, !- Space Name
  Foundation,                             !- Outside Boundary Condition
  {125b6ec8-bbfd-4941-947b-e9e49488c449}, !- Outside Boundary Condition Object
  NoSun,                                  !- Sun Exposure
  NoWind,                                 !- Wind Exposure
  ,                                       !- View Factor to Ground
  ,                                       !- Number of Vertices
  22.6087, 22.6087, 0,                    !- X,Y,Z Vertex 1 {m}
  22.6087, 16.4427, 0,                    !- X,Y,Z Vertex 2 {m}
  0, 16.4427, 0,                          !- X,Y,Z Vertex 3 {m}
  0, 22.6087, 0;                          !- X,Y,Z Vertex 4 {m}

OS:RunPeriod,
  {3c4ccfb1-e715-4662-9c52-be1b0a138576}, !- Handle
  Run Period 1,                           !- Name
  1,                                      !- Begin Month
  1,                                      !- Begin Day of Month
  12,                                     !- End Month
  31,                                     !- End Day of Month
  No,                                     !- Use Weather File Holidays and Special Days
  No,                                     !- Use Weather File Daylight Saving Period
  No,                                     !- Apply Weekend Holiday Rule
  Yes,                                    !- Use Weather File Rain Indicators
  Yes,                                    !- Use Weather File Snow Indicators
  1;                                      !- Number of Times Runperiod to be Repeated

OS:YearDescription,
  {7190988a-56b7-49e4-be5c-e6199b78fff0}, !- Handle
  ,                                       !- Calendar Year
  Sunday;                                 !- Day of Week for Start Day

OS:HeatBalanceAlgorithm,
  {64382367-5719-4453-8c29-e1a70cef6d9c}, !- Handle
  ConductionTransferFunction,             !- Algorithm
  200;                                    !- Surface Temperature Upper Limit {C}

OS:Surface,
  {1bf4d799-b7fc-481e-b40e-29c78d189519}, !- Handle
  Dining_Wall_North,                      !- Name
  Wall,                                   !- Surface Type
  ,                                       !- Construction Name
  {d48cb50c-3a07-4ed6-baac-fe451a3f5495}, !- Space Name
  Surface,                                !- Outside Boundary Condition
  {18d25d92-d723-4017-980c-f20184bc1dd2}, !- Outside Boundary Condition Object
  NoSun,                                  !- Sun Exposure
  NoWind,                                 !- Wind Exposure
  ,                                       !- View Factor to Ground
  ,                                       !- Number of Vertices
  22.6087, 16.4427, 3.0488,               !- X,Y,Z Vertex 1 {m}
  22.6087, 16.4427, 0,                    !- X,Y,Z Vertex 2 {m}
  0, 16.4427, 0,                          !- X,Y,Z Vertex 3 {m}
  0, 16.4427, 3.0488;                     !- X,Y,Z Vertex 4 {m}

OS:Output:Meter,
  {691ea4a2-e815-4852-aa14-ac1ce9bfcf5c}, !- Handle
  NaturalGas:Facility,                    !- Name
  Hourly,                                 !- Reporting Frequency
  True,                                   !- Meter File Only
  False;                                  !- Cumulative

OS:ConvergenceLimits,
  {a71a34c7-4772-4b25-9024-f2d758143793}, !- Handle
  1,                                      !- Minimum System Timestep {minutes}
  20;                                     !- Maximum HVAC Iterations

OS:Output:Meter,
  {ceae7f14-5ab7-4a91-9729-89b3f9655715}, !- Handle
  Electricity:Facility,                   !- Name
  Hourly,                                 !- Reporting Frequency
  True,                                   !- Meter File Only
  False;                                  !- Cumulative

OS:Surface,
  {c948d197-ce91-4318-a26c-8d47d0d034ce}, !- Handle
  Kitchen_Wall_East,                      !- Name
  Wall,                                   !- Surface Type
  ,                                       !- Construction Name
  {77d3cfbe-7d30-4aaf-86db-75976a798830}, !- Space Name
  Outdoors,                               !- Outside Boundary Condition
  ,                                       !- Outside Boundary Condition Object
  SunExposed,                             !- Sun Exposure
  WindExposed,                            !- Wind Exposure
  ,                                       !- View Factor to Ground
  ,                                       !- Number of Vertices
  22.6087, 16.4427, 3.0488,               !- X,Y,Z Vertex 1 {m}
  22.6087, 16.4427, 0,                    !- X,Y,Z Vertex 2 {m}
  22.6087, 22.6087, 0,                    !- X,Y,Z Vertex 3 {m}
  22.6087, 22.6087, 3.0488;               !- X,Y,Z Vertex 4 {m}

OS:Building,
  {57a0612b-80fa-4a4f-8704-b192e6d39f92}, !- Handle
  FullServiceRestaurant,                  !- Name
  ,                                       !- Building Sector Type
  0,                                      !- North Axis {deg}
  ,                                       !- Nominal Floor to Floor Height {m}
  ,                                       !- Space Type Name
  {5026372b-7269-4a6a-8984-a53628eef4d8}, !- Default Construction Set Name
  ,                                       !- Default Schedule Set Name
  1,                                      !- Standards Number of Stories
  1,                                      !- Standards Number of Above Ground Stories
  NECB2011,                               !- Standards Template
  FullServiceRestaurant;                  !- Standards Building Type

OS:Surface,
  {2634f8db-e6bf-4750-b638-5aac0aaf0b7c}, !- Handle
  east-roof,                              !- Name
  RoofCeiling,                            !- Surface Type
  ,                                       !- Construction Name
  {a6d9b45b-2723-43c6-8355-1e3d52bed681}, !- Space Name
  Outdoors,                               !- Outside Boundary Condition
  ,                                       !- Outside Boundary Condition Object
  SunExposed,                             !- Sun Exposure
  WindExposed,                            !- Wind Exposure
  ,                                       !- View Factor to Ground
  ,                                       !- Number of Vertices
  11.3044, 3.769, 3.7692,                 !- X,Y,Z Vertex 1 {m}
  22.6087, 0, 0,                          !- X,Y,Z Vertex 2 {m}
  22.6087, 22.6087, 0,                    !- X,Y,Z Vertex 3 {m}
  11.3044, 18.8397, 3.7692;               !- X,Y,Z Vertex 4 {m}

OS:Facility,
  {8630d1c8-2694-4622-ac46-ec75f253c7ea}; !- Handle

OS:BuildingStory,
  {28f49d8d-3737-4296-b4ec-3bf67b00f788}, !- Handle
  Building Story 1,                       !- Name
  0,                                      !- Nominal Z Coordinate {m}
  ,                                       !- Nominal Floor to Floor Height {m}
  ,                                       !- Default Construction Set Name
  ,                                       !- Default Schedule Set Name
  ;                                       !- Group Rendering Name

OS:BuildingStory,
  {f0fd8038-c2dd-4caa-93ad-11e3bdfa35ec}, !- Handle
  Building Story 2,                       !- Name
  3.0488,                                 !- Nominal Z Coordinate {m}
  ,                                       !- Nominal Floor to Floor Height {m}
  ,                                       !- Default Construction Set Name
  ,                                       !- Default Schedule Set Name
  ;                                       !- Group Rendering Name

OS:WeatherFile,
  {591e076f-b1ff-4f98-9dd0-4f1873bc12ec}, !- Handle
  Vancouver Intl AP,                      !- City
  BC,                                     !- State Province Region
  CAN,                                    !- Country
  CWEC2020,                               !- Data Source
  718920,                                 !- WMO Number
  49.19,                                  !- Latitude {deg}
  -123.18,                                !- Longitude {deg}
  -8,                                     !- Time Zone {hr}
  4.3,                                    !- Elevation {m}
  /home/osdev/openstudio-standards/data/weather/CAN_BC_Vancouver.Intl.AP.718920_CWEC2020.epw, !- Url
  9816C2DC,                               !- Checksum
  ,                                       !- Start Date Actual Year
  Sunday;                                 !- Start Day of Week

OS:Site:WaterMainsTemperature,
  {d4488da0-43af-4769-8758-7b0d3a753888}, !- Handle
  Correlation,                            !- Calculation Method
  ,                                       !- Temperature Schedule Name
  10.55,                                  !- Annual Average Outdoor Air Temperature {C}
  14.4;                                   !- Maximum Difference In Monthly Average Outdoor Air Temperatures {deltaC}

OS:Site:GroundTemperature:BuildingSurface,
  {e1936907-687d-474b-be93-754a3a0b3ae4}, !- Handle
  19.527,                                 !- January Ground Temperature {C}
  19.502,                                 !- February Ground Temperature {C}
  19.536,                                 !- March Ground Temperature {C}
  19.598,                                 !- April Ground Temperature {C}
  20.002,                                 !- May Ground Temperature {C}
  21.64,                                  !- June Ground Temperature {C}
  22.225,                                 !- July Ground Temperature {C}
  22.375,                                 !- August Ground Temperature {C}
  21.449,                                 !- September Ground Temperature {C}
  20.121,                                 !- October Ground Temperature {C}
  19.802,                                 !- November Ground Temperature {C}
  19.633;                                 !- December Ground Temperature {C}

OS:SpaceType,
  {73bc1497-600d-436a-a675-cd1456fcf9ac}, !- Handle
  Space Function - undefined -,           !- Name
  ,                                       !- Default Construction Set Name
  {462b1133-5db1-4606-b4dc-20ea6c14add9}, !- Default Schedule Set Name
  {703cb470-0ca0-4f6f-8e62-48f4e1b9ad91}, !- Group Rendering Name
  {e8819bce-1e8b-46a5-ac27-d9b7a168eeba}, !- Design Specification Outdoor Air Object Name
  ,                                       !- Standards Template
  Space Function,                         !- Standards Building Type
  - undefined -;                          !- Standards Space Type

OS:Rendering:Color,
  {2d245aba-2197-4e89-8d94-0ab8b7d48165}, !- Handle
  Space Function - undefined -,           !- Name
  255,                                    !- Rendering Red Value
  255,                                    !- Rendering Green Value
  255;                                    !- Rendering Blue Value

OS:SpaceType,
  {74d79ecf-87d4-4cbb-ba37-86cfde5c20bb}, !- Handle
  Space Function Dining - family space,   !- Name
  ,                                       !- Default Construction Set Name
  {de7e7064-61e1-4c6b-a445-b24e8fd41cca}, !- Default Schedule Set Name
  {152edd72-f0db-432d-af22-662d0ca363dc}, !- Group Rendering Name
  {70fd49e4-51c0-43a3-88a4-7d7820c54807}, !- Design Specification Outdoor Air Object Name
  ,                                       !- Standards Template
  Space Function,                         !- Standards Building Type
  Dining - family space;                  !- Standards Space Type

OS:Rendering:Color,
  {7a9e8539-9cb5-4ca2-908b-238e9d319c5c}, !- Handle
  Space Function Dining - family space,   !- Name
  255,                                    !- Rendering Red Value
  255,                                    !- Rendering Green Value
  255;                                    !- Rendering Blue Value

OS:SpaceType,
  {f72f339a-7251-400d-abf7-c267ec6d3b23}, !- Handle
  Space Function Food preparation,        !- Name
  ,                                       !- Default Construction Set Name
  {7dc0b989-8a59-4302-92a9-e97bff8f1c6b}, !- Default Schedule Set Name
  {3762accf-fb45-4587-b7c6-0d557ca4c2fe}, !- Group Rendering Name
  {1feeec35-27ca-4b1d-866c-7ebaf781b931}, !- Design Specification Outdoor Air Object Name
  ,                                       !- Standards Template
  Space Function,                         !- Standards Building Type
  Food preparation;                       !- Standards Space Type

OS:Rendering:Color,
  {03141d71-f229-4289-b14b-a6ad922f5827}, !- Handle
  Space Function Food preparation,        !- Name
  255,                                    !- Rendering Red Value
  255,                                    !- Rendering Green Value
  255;                                    !- Rendering Blue Value

OS:SizingPeriod:DesignDay,
  {46534739-fcbc-4334-88f8-b3d26997a462}, !- Handle
  Vancouver Intl AP Ann Clg .4% Condns DB=>MWB, !- Name
  25.1,                                   !- Maximum Dry-Bulb Temperature {C}
  7.7,                                    !- Daily Dry-Bulb Temperature Range {deltaC}
  101273,                                 !- Barometric Pressure {Pa}
  3.7,                                    !- Wind Speed {m/s}
  290,                                    !- Wind Direction {deg}
  ,                                       !- Sky Clearness
  No,                                     !- Rain Indicator
  No,                                     !- Snow Indicator
  21,                                     !- Day of Month
  7,                                      !- Month
  SummerDesignDay,                        !- Day Type
  No,                                     !- Daylight Saving Time Indicator
  Wetbulb,                                !- Humidity Condition Type
  ,                                       !- Humidity Condition Day Schedule Name
  18.5,                                   !- Wetbulb or DewPoint at Maximum Dry-Bulb {C}
  ,                                       !- Humidity Ratio at Maximum Dry-Bulb {kgWater/kgDryAir}
  ,                                       !- Enthalpy at Maximum Dry-Bulb {J/kg}
  DefaultMultipliers,                     !- Dry-Bulb Temperature Range Modifier Type
  ,                                       !- Dry-Bulb Temperature Range Modifier Day Schedule Name
  ASHRAETau,                              !- Solar Model Indicator
  ,                                       !- Beam Solar Day Schedule Name
  ,                                       !- Diffuse Solar Day Schedule Name
  0.359,                                  !- ASHRAE Clear Sky Optical Depth for Beam Irradiance {dimensionless}
  2.485;                                  !- ASHRAE Clear Sky Optical Depth for Diffuse Irradiance {dimensionless}

OS:SizingPeriod:DesignDay,
  {97602e60-55d0-43e7-a776-c0563db583d9}, !- Handle
  Vancouver Intl AP Ann Clg .4% Condns WB=>MDB, !- Name
  23.8,                                   !- Maximum Dry-Bulb Temperature {C}
  7.7,                                    !- Daily Dry-Bulb Temperature Range {deltaC}
  101273,                                 !- Barometric Pressure {Pa}
  3.7,                                    !- Wind Speed {m/s}
  290,                                    !- Wind Direction {deg}
  ,                                       !- Sky Clearness
  No,                                     !- Rain Indicator
  No,                                     !- Snow Indicator
  21,                                     !- Day of Month
  7,                                      !- Month
  SummerDesignDay,                        !- Day Type
  No,                                     !- Daylight Saving Time Indicator
  Wetbulb,                                !- Humidity Condition Type
  ,                                       !- Humidity Condition Day Schedule Name
  19.2,                                   !- Wetbulb or DewPoint at Maximum Dry-Bulb {C}
  ,                                       !- Humidity Ratio at Maximum Dry-Bulb {kgWater/kgDryAir}
  ,                                       !- Enthalpy at Maximum Dry-Bulb {J/kg}
  DefaultMultipliers,                     !- Dry-Bulb Temperature Range Modifier Type
  ,                                       !- Dry-Bulb Temperature Range Modifier Day Schedule Name
  ASHRAETau,                              !- Solar Model Indicator
  ,                                       !- Beam Solar Day Schedule Name
  ,                                       !- Diffuse Solar Day Schedule Name
  0.359,                                  !- ASHRAE Clear Sky Optical Depth for Beam Irradiance {dimensionless}
  2.485;                                  !- ASHRAE Clear Sky Optical Depth for Diffuse Irradiance {dimensionless}

OS:SizingPeriod:DesignDay,
  {7bb72575-01a7-498e-ab10-a765eff449f0}, !- Handle
  Vancouver Intl AP Ann Htg 99.6% Condns DB, !- Name
  -5.1,                                   !- Maximum Dry-Bulb Temperature {C}
  0,                                      !- Daily Dry-Bulb Temperature Range {deltaC}
  101273,                                 !- Barometric Pressure {Pa}
  3,                                      !- Wind Speed {m/s}
  100,                                    !- Wind Direction {deg}
  0,                                      !- Sky Clearness
  No,                                     !- Rain Indicator
  No,                                     !- Snow Indicator
  21,                                     !- Day of Month
  12,                                     !- Month
  WinterDesignDay,                        !- Day Type
  No,                                     !- Daylight Saving Time Indicator
  Wetbulb,                                !- Humidity Condition Type
  ,                                       !- Humidity Condition Day Schedule Name
  -5.1,                                   !- Wetbulb or DewPoint at Maximum Dry-Bulb {C}
  ,                                       !- Humidity Ratio at Maximum Dry-Bulb {kgWater/kgDryAir}
  ,                                       !- Enthalpy at Maximum Dry-Bulb {J/kg}
  DefaultMultipliers,                     !- Dry-Bulb Temperature Range Modifier Type
  ,                                       !- Dry-Bulb Temperature Range Modifier Day Schedule Name
  ASHRAEClearSky;                         !- Solar Model Indicator

OS:ClimateZones,
  {431fd891-39d3-4dba-95c2-2be4b41072d1}, !- Handle
  ASHRAE,                                 !- Climate Zone Institution Name 1
  ANSI/ASHRAE Standard 169,               !- Climate Zone Document Name 1
  2006,                                   !- Climate Zone Document Year 1
  4C;                                     !- Climate Zone Value 1

OS:Site:GroundTemperature:Shallow,
  {b6a40199-8f73-41bc-a55b-2d1643034c0d}, !- Handle
  4.6,                                    !- January Surface Ground Temperature {C}
  4.1,                                    !- February Surface Ground Temperature {C}
  5.1,                                    !- March Surface Ground Temperature {C}
  6.7,                                    !- April Surface Ground Temperature {C}
  10.9,                                   !- May Surface Ground Temperature {C}
  14.2,                                   !- June Surface Ground Temperature {C}
  16.4,                                   !- July Surface Ground Temperature {C}
  17.1,                                   !- August Surface Ground Temperature {C}
  15.9,                                   !- September Surface Ground Temperature {C}
  13.4,                                   !- October Surface Ground Temperature {C}
  10,                                     !- November Surface Ground Temperature {C}
  6.9;                                    !- December Surface Ground Temperature {C}

OS:Site:GroundTemperature:Deep,
  {10fb0f63-b6c6-43c9-a302-a696dfe0f46f}, !- Handle
  8.6,                                    !- January Deep Ground Temperature {C}
  7.5,                                    !- February Deep Ground Temperature {C}
  7.3,                                    !- March Deep Ground Temperature {C}
  7.6,                                    !- April Deep Ground Temperature {C}
  9.2,                                    !- May Deep Ground Temperature {C}
  10.9,                                   !- June Deep Ground Temperature {C}
  12.5,                                   !- July Deep Ground Temperature {C}
  13.6,                                   !- August Deep Ground Temperature {C}
  13.8,                                   !- September Deep Ground Temperature {C}
  13.2,                                   !- October Deep Ground Temperature {C}
  11.8,                                   !- November Deep Ground Temperature {C}
  10.2;                                   !- December Deep Ground Temperature {C}

OS:Site:GroundTemperature:FCfactorMethod,
  {ae7e6df9-5fef-443b-86a1-13e1943d80ad}, !- Handle
  10.2,                                   !- January Ground Temperature {C}
  6.9,                                    !- February Ground Temperature {C}
  3.9,                                    !- March Ground Temperature {C}
  4.2,                                    !- April Ground Temperature {C}
  5.1,                                    !- May Ground Temperature {C}
  6.7,                                    !- June Ground Temperature {C}
  9.5,                                    !- July Ground Temperature {C}
  13,                                     !- August Ground Temperature {C}
  15.9,                                   !- September Ground Temperature {C}
  18.1,                                   !- October Ground Temperature {C}
  18.3,                                   !- November Ground Temperature {C}
  14.8;                                   !- December Ground Temperature {C}

OS:AdditionalProperties,
  {3124ace2-46b8-4455-9991-c18c2576f6ec}, !- Handle
  {a6d9b45b-2723-43c6-8355-1e3d52bed681}, !- Object Name
  space_conditioning_category,            !- Feature Name 1
  String,                                 !- Feature Data Type 1
  unconditioned;                          !- Feature Value 1

OS:AdditionalProperties,
  {f013de0d-5fa8-47ea-b24b-52a71c92b670}, !- Handle
  {d48cb50c-3a07-4ed6-baac-fe451a3f5495}, !- Object Name
  space_conditioning_category,            !- Feature Name 1
  String,                                 !- Feature Data Type 1
  nonresconditioned;                      !- Feature Value 1

OS:AdditionalProperties,
  {1ad37bac-b016-49b4-aba9-c00c8c360aed}, !- Handle
  {77d3cfbe-7d30-4aaf-86db-75976a798830}, !- Object Name
  space_conditioning_category,            !- Feature Name 1
  String,                                 !- Feature Data Type 1
  nonresconditioned;                      !- Feature Value 1

OS:AdditionalProperties,
  {577b4891-b03d-467a-b510-adfc7b257955}, !- Handle
  {57a0612b-80fa-4a4f-8704-b192e6d39f92}; !- Object Name

OS:Rendering:Color,
  {f3fcd16c-3fe3-4a76-b48f-53e93efe3c6d}, !- Handle
  Space Function - undefined - 1,         !- Name
  255,                                    !- Rendering Red Value
  255,                                    !- Rendering Green Value
  255;                                    !- Rendering Blue Value

OS:DesignSpecification:OutdoorAir,
  {e8819bce-1e8b-46a5-ac27-d9b7a168eeba}, !- Handle
  Space Function - undefined - Ventilation, !- Name
  ,                                       !- Outdoor Air Method
  0,                                      !- Outdoor Air Flow per Person {m3/s-person}
  0,                                      !- Outdoor Air Flow per Floor Area {m3/s-m2}
  ,                                       !- Outdoor Air Flow Rate {m3/s}
  0,                                      !- Outdoor Air Flow Air Changes per Hour {1/hr}
  ;                                       !- Outdoor Air Flow Rate Fraction Schedule Name

OS:DefaultScheduleSet,
  {462b1133-5db1-4606-b4dc-20ea6c14add9}, !- Handle
  Space Function - undefined - Schedule Set, !- Name
  ,                                       !- Hours of Operation Schedule Name
  ,                                       !- Number of People Schedule Name
  ,                                       !- People Activity Level Schedule Name
  ,                                       !- Lighting Schedule Name
  ,                                       !- Electric Equipment Schedule Name
  ,                                       !- Gas Equipment Schedule Name
  ,                                       !- Hot Water Equipment Schedule Name
  ,                                       !- Infiltration Schedule Name
  ,                                       !- Steam Equipment Schedule Name
  ;                                       !- Other Equipment Schedule Name

OS:ThermostatSetpoint:DualSetpoint,
  {2cb2b77b-cb56-456a-aa61-b63ae375b5f5}, !- Handle
  Space Function - undefined - Thermostat; !- Name

OS:Rendering:Color,
  {df613411-69fa-4001-be4b-52d04b940651}, !- Handle
  Space Function Dining - family space 1, !- Name
  255,                                    !- Rendering Red Value
  255,                                    !- Rendering Green Value
  255;                                    !- Rendering Blue Value

OS:People:Definition,
  {7d2ac824-4f53-4721-ab96-a5313d739e67}, !- Handle
  Space Function Dining - family space People Definition, !- Name
  People/Area,                            !- Number of People Calculation Method
  ,                                       !- Number of People {people}
  0.0999967277712333,                     !- People per Space Floor Area {person/m2}
  ,                                       !- Space Floor Area per Person {m2/person}
  0.3;                                    !- Fraction Radiant

OS:People,
  {1ea00f10-43a2-4aff-97d0-aa1fc2779938}, !- Handle
  Space Function Dining - family space People, !- Name
  {7d2ac824-4f53-4721-ab96-a5313d739e67}, !- People Definition Name
  {74d79ecf-87d4-4cbb-ba37-86cfde5c20bb}, !- Space or SpaceType Name
  ,                                       !- Number of People Schedule Name
  ,                                       !- Activity Level Schedule Name
  ,                                       !- Surface Name/Angle Factor List Name
  {4d8a23db-6af4-43f4-972c-ee581395afba}, !- Work Efficiency Schedule Name
  {d670d8dc-403b-4ef8-84e9-b11e56dcb0a5}, !- Clothing Insulation Schedule Name
  {a97416ed-7847-4d3b-b209-1e8d3820f39e}, !- Air Velocity Schedule Name
  1;                                      !- Multiplier

OS:Schedule:Ruleset,
  {d670d8dc-403b-4ef8-84e9-b11e56dcb0a5}, !- Handle
  Clothing Schedule,                      !- Name
  {6f8c2778-8828-451c-9396-b4549a551a9c}, !- Schedule Type Limits Name
  {a50b9a84-055e-4f2f-b73b-697e97004954}; !- Default Day Schedule Name

OS:Schedule:Day,
  {a50b9a84-055e-4f2f-b73b-697e97004954}, !- Handle
  Clothing Schedule Default Winter Clothes, !- Name
  {6f8c2778-8828-451c-9396-b4549a551a9c}, !- Schedule Type Limits Name
  ,                                       !- Interpolate to Timestep
  24,                                     !- Hour 1
  0,                                      !- Minute 1
  1;                                      !- Value Until Time 1

OS:Schedule:Rule,
  {9a5e6523-7a38-4eb5-9673-19d08915b030}, !- Handle
  Schedule Rule 1,                        !- Name
  {d670d8dc-403b-4ef8-84e9-b11e56dcb0a5}, !- Schedule Ruleset Name
  0,                                      !- Rule Order
  {8ce424fd-b0bc-4bfa-ad50-b6cb92d6a5d8}, !- Day Schedule Name
  ,                                       !- Apply Sunday
  ,                                       !- Apply Monday
  ,                                       !- Apply Tuesday
  ,                                       !- Apply Wednesday
  ,                                       !- Apply Thursday
  ,                                       !- Apply Friday
  ,                                       !- Apply Saturday
  DateRange,                              !- Date Specification Type
  5,                                      !- Start Month
  1,                                      !- Start Day
  9,                                      !- End Month
  30;                                     !- End Day

OS:Schedule:Day,
  {8ce424fd-b0bc-4bfa-ad50-b6cb92d6a5d8}, !- Handle
  Clothing Schedule Summer Clothes,       !- Name
  {6f8c2778-8828-451c-9396-b4549a551a9c}, !- Schedule Type Limits Name
  ,                                       !- Interpolate to Timestep
  24,                                     !- Hour 1
  0,                                      !- Minute 1
  0.5;                                    !- Value Until Time 1

OS:ScheduleTypeLimits,
  {6f8c2778-8828-451c-9396-b4549a551a9c}, !- Handle
  ClothingInsulation,                     !- Name
  0,                                      !- Lower Limit Value
  ,                                       !- Upper Limit Value
  Continuous,                             !- Numeric Type
  ClothingInsulation;                     !- Unit Type

OS:Schedule:Ruleset,
  {a97416ed-7847-4d3b-b209-1e8d3820f39e}, !- Handle
  Air Velocity Schedule,                  !- Name
  {b00e64bd-8c53-448c-8071-1ebdb655cc40}, !- Schedule Type Limits Name
  {ef686996-65f7-4738-b3c5-c0ab81281d0c}; !- Default Day Schedule Name

OS:Schedule:Day,
  {ef686996-65f7-4738-b3c5-c0ab81281d0c}, !- Handle
  Air Velocity Schedule Default,          !- Name
  {b00e64bd-8c53-448c-8071-1ebdb655cc40}, !- Schedule Type Limits Name
  ,                                       !- Interpolate to Timestep
  24,                                     !- Hour 1
  0,                                      !- Minute 1
  0.2;                                    !- Value Until Time 1

OS:ScheduleTypeLimits,
  {b00e64bd-8c53-448c-8071-1ebdb655cc40}, !- Handle
  Velocity,                               !- Name
  0,                                      !- Lower Limit Value
  ,                                       !- Upper Limit Value
  Continuous,                             !- Numeric Type
  Velocity;                               !- Unit Type

OS:Schedule:Ruleset,
  {4d8a23db-6af4-43f4-972c-ee581395afba}, !- Handle
  Work Efficiency Schedule,               !- Name
  {0c799db5-d59e-443a-a550-2d45587025e3}, !- Schedule Type Limits Name
  {bc1d0adf-621a-4ea4-a47f-f2e8c26448ea}; !- Default Day Schedule Name

OS:Schedule:Day,
  {bc1d0adf-621a-4ea4-a47f-f2e8c26448ea}, !- Handle
  Work Efficiency Schedule Default,       !- Name
  {0c799db5-d59e-443a-a550-2d45587025e3}, !- Schedule Type Limits Name
  ,                                       !- Interpolate to Timestep
  24,                                     !- Hour 1
  0,                                      !- Minute 1
  0;                                      !- Value Until Time 1

OS:ScheduleTypeLimits,
  {0c799db5-d59e-443a-a550-2d45587025e3}, !- Handle
  Fractional,                             !- Name
  0,                                      !- Lower Limit Value
  1,                                      !- Upper Limit Value
  Continuous;                             !- Numeric Type

OS:Lights:Definition,
  {3e7896ad-2e6f-418c-9d25-df72fced826f}, !- Handle
  Space Function Dining - family space Lights Definition, !- Name
  Watts/Area,                             !- Design Level Calculation Method
  ,                                       !- Lighting Level {W}
  9.59992009949298,                       !- Watts per Space Floor Area {W/m2}
  ,                                       !- Watts per Person {W/person}
  0.5,                                    !- Fraction Radiant
  0.2;                                    !- Fraction Visible

OS:Lights,
  {2104a056-5516-434f-81f5-0848c6bb2e8c}, !- Handle
  Space Function Dining - family space Lights, !- Name
  {3e7896ad-2e6f-418c-9d25-df72fced826f}, !- Lights Definition Name
  {74d79ecf-87d4-4cbb-ba37-86cfde5c20bb}, !- Space or SpaceType Name
  ,                                       !- Schedule Name
  1,                                      !- Fraction Replaceable
  ,                                       !- Multiplier
  General;                                !- End-Use Subcategory

OS:ElectricEquipment:Definition,
  {122af48c-ab26-4630-ad16-79299a725298}, !- Handle
  Space Function Dining - family space Elec Equip Definition, !- Name
  Watts/Area,                             !- Design Level Calculation Method
  ,                                       !- Design Level {W}
  0.999991679497248,                      !- Watts per Space Floor Area {W/m2}
  ,                                       !- Watts per Person {W/person}
  ,                                       !- Fraction Latent
  0.5;                                    !- Fraction Radiant

OS:ElectricEquipment,
  {9b7bb39f-5acc-425a-ae98-6dd19e856348}, !- Handle
  Space Function Dining - family space Elec Equip, !- Name
  {122af48c-ab26-4630-ad16-79299a725298}, !- Electric Equipment Definition Name
  {74d79ecf-87d4-4cbb-ba37-86cfde5c20bb}, !- Space or SpaceType Name
  ,                                       !- Schedule Name
  ,                                       !- Multiplier
  General;                                !- End-Use Subcategory

OS:DesignSpecification:OutdoorAir,
  {70fd49e4-51c0-43a3-88a4-7d7820c54807}, !- Handle
  Space Function Dining - family space Ventilation, !- Name
  Sum,                                    !- Outdoor Air Method
  0.071122327285253,                      !- Outdoor Air Flow per Person {m3/s-person}
  ,                                       !- Outdoor Air Flow per Floor Area {m3/s-m2}
  ,                                       !- Outdoor Air Flow Rate {m3/s}
  ,                                       !- Outdoor Air Flow Air Changes per Hour {1/hr}
  ;                                       !- Outdoor Air Flow Rate Fraction Schedule Name

OS:DefaultScheduleSet,
  {de7e7064-61e1-4c6b-a445-b24e8fd41cca}, !- Handle
  Space Function Dining - family space Schedule Set, !- Name
  ,                                       !- Hours of Operation Schedule Name
  {eca81cc6-5818-49d9-a77f-0fd7a89fe5da}, !- Number of People Schedule Name
  {9b3f48d7-8d2e-4589-b3a9-2aaa1243b9bf}, !- People Activity Level Schedule Name
  {9681dea3-463a-45bb-a871-d3f4f1a5adfa}, !- Lighting Schedule Name
  {caeca53b-4d7b-4364-9540-6a33b18c697c}, !- Electric Equipment Schedule Name
  ,                                       !- Gas Equipment Schedule Name
  ,                                       !- Hot Water Equipment Schedule Name
  ,                                       !- Infiltration Schedule Name
  ,                                       !- Steam Equipment Schedule Name
  ;                                       !- Other Equipment Schedule Name

OS:Schedule:Ruleset,
  {eca81cc6-5818-49d9-a77f-0fd7a89fe5da}, !- Handle
  NECB-B-Occupancy,                       !- Name
  {0c799db5-d59e-443a-a550-2d45587025e3}, !- Schedule Type Limits Name
  {56beb036-979b-4f21-91a2-7f54b34930aa}; !- Default Day Schedule Name

OS:Schedule:Day,
  {56beb036-979b-4f21-91a2-7f54b34930aa}, !- Handle
  NECB-B-Occupancy Default,               !- Name
  {0c799db5-d59e-443a-a550-2d45587025e3}, !- Schedule Type Limits Name
  No,                                     !- Interpolate to Timestep
  1,                                      !- Hour 1
  0,                                      !- Minute 1
  0.3,                                    !- Value Until Time 1
  2,                                      !- Hour 2
  0,                                      !- Minute 2
  0.1,                                    !- Value Until Time 2
  9,                                      !- Hour 3
  0,                                      !- Minute 3
  0,                                      !- Value Until Time 3
  10,                                     !- Hour 4
  0,                                      !- Minute 4
  0.1,                                    !- Value Until Time 4
  11,                                     !- Hour 5
  0,                                      !- Minute 5
  0.2,                                    !- Value Until Time 5
  12,                                     !- Hour 6
  0,                                      !- Minute 6
  0.5,                                    !- Value Until Time 6
  13,                                     !- Hour 7
  0,                                      !- Minute 7
  0.9,                                    !- Value Until Time 7
  14,                                     !- Hour 8
  0,                                      !- Minute 8
  0.8,                                    !- Value Until Time 8
  15,                                     !- Hour 9
  0,                                      !- Minute 9
  0.5,                                    !- Value Until Time 9
  17,                                     !- Hour 10
  0,                                      !- Minute 10
  0.2,                                    !- Value Until Time 10
  18,                                     !- Hour 11
  0,                                      !- Minute 11
  0.3,                                    !- Value Until Time 11
  19,                                     !- Hour 12
  0,                                      !- Minute 12
  0.6,                                    !- Value Until Time 12
  22,                                     !- Hour 13
  0,                                      !- Minute 13
  0.9,                                    !- Value Until Time 13
  23,                                     !- Hour 14
  0,                                      !- Minute 14
  0.6,                                    !- Value Until Time 14
  24,                                     !- Hour 15
  0,                                      !- Minute 15
  0.4;                                    !- Value Until Time 15

OS:Schedule:Rule,
  {de96fb1f-6e57-458c-831f-6914f5ebe222}, !- Handle
  Schedule Rule 2,                        !- Name
  {eca81cc6-5818-49d9-a77f-0fd7a89fe5da}, !- Schedule Ruleset Name
  2,                                      !- Rule Order
  {dbd361e2-5864-44da-bfc4-2d67208ac463}, !- Day Schedule Name
  ,                                       !- Apply Sunday
  Yes,                                    !- Apply Monday
  Yes,                                    !- Apply Tuesday
  Yes,                                    !- Apply Wednesday
  Yes,                                    !- Apply Thursday
  Yes,                                    !- Apply Friday
  ,                                       !- Apply Saturday
  DateRange,                              !- Date Specification Type
  1,                                      !- Start Month
  1,                                      !- Start Day
  12,                                     !- End Month
  31;                                     !- End Day

OS:Schedule:Day,
  {dbd361e2-5864-44da-bfc4-2d67208ac463}, !- Handle
  NECB-B-Occupancy Default|Wkdy Day,      !- Name
  {0c799db5-d59e-443a-a550-2d45587025e3}, !- Schedule Type Limits Name
  No,                                     !- Interpolate to Timestep
  1,                                      !- Hour 1
  0,                                      !- Minute 1
  0.3,                                    !- Value Until Time 1
  2,                                      !- Hour 2
  0,                                      !- Minute 2
  0.1,                                    !- Value Until Time 2
  9,                                      !- Hour 3
  0,                                      !- Minute 3
  0,                                      !- Value Until Time 3
  10,                                     !- Hour 4
  0,                                      !- Minute 4
  0.1,                                    !- Value Until Time 4
  11,                                     !- Hour 5
  0,                                      !- Minute 5
  0.2,                                    !- Value Until Time 5
  12,                                     !- Hour 6
  0,                                      !- Minute 6
  0.5,                                    !- Value Until Time 6
  13,                                     !- Hour 7
  0,                                      !- Minute 7
  0.9,                                    !- Value Until Time 7
  14,                                     !- Hour 8
  0,                                      !- Minute 8
  0.8,                                    !- Value Until Time 8
  15,                                     !- Hour 9
  0,                                      !- Minute 9
  0.5,                                    !- Value Until Time 9
  17,                                     !- Hour 10
  0,                                      !- Minute 10
  0.2,                                    !- Value Until Time 10
  18,                                     !- Hour 11
  0,                                      !- Minute 11
  0.3,                                    !- Value Until Time 11
  19,                                     !- Hour 12
  0,                                      !- Minute 12
  0.6,                                    !- Value Until Time 12
  22,                                     !- Hour 13
  0,                                      !- Minute 13
  0.9,                                    !- Value Until Time 13
  23,                                     !- Hour 14
  0,                                      !- Minute 14
  0.6,                                    !- Value Until Time 14
  24,                                     !- Hour 15
  0,                                      !- Minute 15
  0.4;                                    !- Value Until Time 15

OS:Schedule:Rule,
  {370929cd-beb6-428b-a548-8e09820aa2f7}, !- Handle
  Schedule Rule 3,                        !- Name
  {eca81cc6-5818-49d9-a77f-0fd7a89fe5da}, !- Schedule Ruleset Name
  1,                                      !- Rule Order
  {1e293008-7b86-429b-a02a-6a4af9ea674f}, !- Day Schedule Name
  ,                                       !- Apply Sunday
  ,                                       !- Apply Monday
  ,                                       !- Apply Tuesday
  ,                                       !- Apply Wednesday
  ,                                       !- Apply Thursday
  ,                                       !- Apply Friday
  Yes,                                    !- Apply Saturday
  DateRange,                              !- Date Specification Type
  1,                                      !- Start Month
  1,                                      !- Start Day
  12,                                     !- End Month
  31;                                     !- End Day

OS:Schedule:Day,
  {1e293008-7b86-429b-a02a-6a4af9ea674f}, !- Handle
  NECB-B-Occupancy Sat Day,               !- Name
  {0c799db5-d59e-443a-a550-2d45587025e3}, !- Schedule Type Limits Name
  No,                                     !- Interpolate to Timestep
  1,                                      !- Hour 1
  0,                                      !- Minute 1
  0.5,                                    !- Value Until Time 1
  2,                                      !- Hour 2
  0,                                      !- Minute 2
  0.3,                                    !- Value Until Time 2
  9,                                      !- Hour 3
  0,                                      !- Minute 3
  0,                                      !- Value Until Time 3
  10,                                     !- Hour 4
  0,                                      !- Minute 4
  0.1,                                    !- Value Until Time 4
  11,                                     !- Hour 5
  0,                                      !- Minute 5
  0.2,                                    !- Value Until Time 5
  12,                                     !- Hour 6
  0,                                      !- Minute 6
  0.5,                                    !- Value Until Time 6
  13,                                     !- Hour 7
  0,                                      !- Minute 7
  0.9,                                    !- Value Until Time 7
  14,                                     !- Hour 8
  0,                                      !- Minute 8
  0.8,                                    !- Value Until Time 8
  15,                                     !- Hour 9
  0,                                      !- Minute 9
  0.5,                                    !- Value Until Time 9
  17,                                     !- Hour 10
  0,                                      !- Minute 10
  0.2,                                    !- Value Until Time 10
  18,                                     !- Hour 11
  0,                                      !- Minute 11
  0.3,                                    !- Value Until Time 11
  19,                                     !- Hour 12
  0,                                      !- Minute 12
  0.6,                                    !- Value Until Time 12
  22,                                     !- Hour 13
  0,                                      !- Minute 13
  0.9,                                    !- Value Until Time 13
  24,                                     !- Hour 14
  0,                                      !- Minute 14
  0.6;                                    !- Value Until Time 14

OS:Schedule:Rule,
  {21bd9f07-7f3b-40ee-b3ef-8d436e88b78e}, !- Handle
  Schedule Rule 4,                        !- Name
  {eca81cc6-5818-49d9-a77f-0fd7a89fe5da}, !- Schedule Ruleset Name
  0,                                      !- Rule Order
  {6be94214-c0ee-4107-920f-a50a919e8d5c}, !- Day Schedule Name
  Yes,                                    !- Apply Sunday
  ,                                       !- Apply Monday
  ,                                       !- Apply Tuesday
  ,                                       !- Apply Wednesday
  ,                                       !- Apply Thursday
  ,                                       !- Apply Friday
  ,                                       !- Apply Saturday
  DateRange,                              !- Date Specification Type
  1,                                      !- Start Month
  1,                                      !- Start Day
  12,                                     !- End Month
  31;                                     !- End Day

OS:Schedule:Day,
  {6be94214-c0ee-4107-920f-a50a919e8d5c}, !- Handle
  NECB-B-Occupancy Sun|Hol Day,           !- Name
  {0c799db5-d59e-443a-a550-2d45587025e3}, !- Schedule Type Limits Name
  No,                                     !- Interpolate to Timestep
  1,                                      !- Hour 1
  0,                                      !- Minute 1
  0.1,                                    !- Value Until Time 1
  2,                                      !- Hour 2
  0,                                      !- Minute 2
  0.3,                                    !- Value Until Time 2
  10,                                     !- Hour 3
  0,                                      !- Minute 3
  0,                                      !- Value Until Time 3
  11,                                     !- Hour 4
  0,                                      !- Minute 4
  0.1,                                    !- Value Until Time 4
  12,                                     !- Hour 5
  0,                                      !- Minute 5
  0.4,                                    !- Value Until Time 5
  14,                                     !- Hour 6
  0,                                      !- Minute 6
  0.5,                                    !- Value Until Time 6
  15,                                     !- Hour 7
  0,                                      !- Minute 7
  0.4,                                    !- Value Until Time 7
  18,                                     !- Hour 8
  0,                                      !- Minute 8
  0.2,                                    !- Value Until Time 8
  19,                                     !- Hour 9
  0,                                      !- Minute 9
  0.5,                                    !- Value Until Time 9
  21,                                     !- Hour 10
  0,                                      !- Minute 10
  0.7,                                    !- Value Until Time 10
  22,                                     !- Hour 11
  0,                                      !- Minute 11
  0.5,                                    !- Value Until Time 11
  23,                                     !- Hour 12
  0,                                      !- Minute 12
  0.3,                                    !- Value Until Time 12
  24,                                     !- Hour 13
  0,                                      !- Minute 13
  0.1;                                    !- Value Until Time 13

OS:Schedule:Ruleset,
  {9b3f48d7-8d2e-4589-b3a9-2aaa1243b9bf}, !- Handle
  NECB-Activity,                          !- Name
  {fc17303c-b2c3-485c-a242-2423b6c758a5}, !- Schedule Type Limits Name
  {54cdab98-68fa-41a6-96d4-74533dbe1349}, !- Default Day Schedule Name
  {535adc93-6c2f-41ac-8bfa-e65e4fa544b1}, !- Summer Design Day Schedule Name
  {8909a971-dd73-4c12-b36a-2ae515234457}; !- Winter Design Day Schedule Name

OS:Schedule:Day,
  {54cdab98-68fa-41a6-96d4-74533dbe1349}, !- Handle
  NECB-Activity Default,                  !- Name
  {fc17303c-b2c3-485c-a242-2423b6c758a5}, !- Schedule Type Limits Name
  No,                                     !- Interpolate to Timestep
  24,                                     !- Hour 1
  0,                                      !- Minute 1
  130;                                    !- Value Until Time 1

OS:Schedule:Day,
  {5f1ff1b7-91c4-438e-b896-6bfedc43c4a5}, !- Handle
  Schedule Day 1,                         !- Name
  ,                                       !- Schedule Type Limits Name
  ,                                       !- Interpolate to Timestep
  24,                                     !- Hour 1
  0,                                      !- Minute 1
  0;                                      !- Value Until Time 1

OS:Schedule:Day,
  {8909a971-dd73-4c12-b36a-2ae515234457}, !- Handle
  NECB-Activity Winter Design Day,        !- Name
  {fc17303c-b2c3-485c-a242-2423b6c758a5}, !- Schedule Type Limits Name
  No,                                     !- Interpolate to Timestep
  24,                                     !- Hour 1
  0,                                      !- Minute 1
  130;                                    !- Value Until Time 1

OS:Schedule:Day,
  {4b2a64ca-9393-43ae-99d0-ada68d998624}, !- Handle
  Schedule Day 2,                         !- Name
  ,                                       !- Schedule Type Limits Name
  ,                                       !- Interpolate to Timestep
  24,                                     !- Hour 1
  0,                                      !- Minute 1
  0;                                      !- Value Until Time 1

OS:Schedule:Day,
  {535adc93-6c2f-41ac-8bfa-e65e4fa544b1}, !- Handle
  NECB-Activity Summer Design Day,        !- Name
  {fc17303c-b2c3-485c-a242-2423b6c758a5}, !- Schedule Type Limits Name
  No,                                     !- Interpolate to Timestep
  24,                                     !- Hour 1
  0,                                      !- Minute 1
  130;                                    !- Value Until Time 1

OS:ScheduleTypeLimits,
  {fc17303c-b2c3-485c-a242-2423b6c758a5}, !- Handle
  ActivityLevel,                          !- Name
  0,                                      !- Lower Limit Value
  ,                                       !- Upper Limit Value
  Continuous,                             !- Numeric Type
  ActivityLevel;                          !- Unit Type

OS:Schedule:Ruleset,
  {9681dea3-463a-45bb-a871-d3f4f1a5adfa}, !- Handle
  NECB-B-Lighting,                        !- Name
  {0c799db5-d59e-443a-a550-2d45587025e3}, !- Schedule Type Limits Name
  {bb27d634-69ea-4b05-9771-41b6ce3142dc}; !- Default Day Schedule Name

OS:Schedule:Day,
  {bb27d634-69ea-4b05-9771-41b6ce3142dc}, !- Handle
  NECB-B-Lighting Default,                !- Name
  {0c799db5-d59e-443a-a550-2d45587025e3}, !- Schedule Type Limits Name
  No,                                     !- Interpolate to Timestep
  1,                                      !- Hour 1
  0,                                      !- Minute 1
  0.9,                                    !- Value Until Time 1
  2,                                      !- Hour 2
  0,                                      !- Minute 2
  0.5,                                    !- Value Until Time 2
  9,                                      !- Hour 3
  0,                                      !- Minute 3
  0.1,                                    !- Value Until Time 3
  10,                                     !- Hour 4
  0,                                      !- Minute 4
  0.5,                                    !- Value Until Time 4
  11,                                     !- Hour 5
  0,                                      !- Minute 5
  0.7,                                    !- Value Until Time 5
  24,                                     !- Hour 6
  0,                                      !- Minute 6
  0.9;                                    !- Value Until Time 6

OS:Schedule:Rule,
  {9859921c-a2e1-4d41-885d-dbe4d9962c62}, !- Handle
  Schedule Rule 5,                        !- Name
  {9681dea3-463a-45bb-a871-d3f4f1a5adfa}, !- Schedule Ruleset Name
  2,                                      !- Rule Order
  {c458d524-0a72-4b79-8ab9-6870159075a7}, !- Day Schedule Name
  ,                                       !- Apply Sunday
  Yes,                                    !- Apply Monday
  Yes,                                    !- Apply Tuesday
  Yes,                                    !- Apply Wednesday
  Yes,                                    !- Apply Thursday
  Yes,                                    !- Apply Friday
  ,                                       !- Apply Saturday
  DateRange,                              !- Date Specification Type
  1,                                      !- Start Month
  1,                                      !- Start Day
  12,                                     !- End Month
  31;                                     !- End Day

OS:Schedule:Day,
  {c458d524-0a72-4b79-8ab9-6870159075a7}, !- Handle
  NECB-B-Lighting Default|Wkdy Day,       !- Name
  {0c799db5-d59e-443a-a550-2d45587025e3}, !- Schedule Type Limits Name
  No,                                     !- Interpolate to Timestep
  1,                                      !- Hour 1
  0,                                      !- Minute 1
  0.9,                                    !- Value Until Time 1
  2,                                      !- Hour 2
  0,                                      !- Minute 2
  0.5,                                    !- Value Until Time 2
  9,                                      !- Hour 3
  0,                                      !- Minute 3
  0.1,                                    !- Value Until Time 3
  10,                                     !- Hour 4
  0,                                      !- Minute 4
  0.5,                                    !- Value Until Time 4
  11,                                     !- Hour 5
  0,                                      !- Minute 5
  0.7,                                    !- Value Until Time 5
  24,                                     !- Hour 6
  0,                                      !- Minute 6
  0.9;                                    !- Value Until Time 6

OS:Schedule:Rule,
  {e7db5c7f-7fce-4f75-9104-ee8e243ada9d}, !- Handle
  Schedule Rule 6,                        !- Name
  {9681dea3-463a-45bb-a871-d3f4f1a5adfa}, !- Schedule Ruleset Name
  1,                                      !- Rule Order
  {aa0e57b2-316d-4606-bfb9-82cb76185e6c}, !- Day Schedule Name
  ,                                       !- Apply Sunday
  ,                                       !- Apply Monday
  ,                                       !- Apply Tuesday
  ,                                       !- Apply Wednesday
  ,                                       !- Apply Thursday
  ,                                       !- Apply Friday
  Yes,                                    !- Apply Saturday
  DateRange,                              !- Date Specification Type
  1,                                      !- Start Month
  1,                                      !- Start Day
  12,                                     !- End Month
  31;                                     !- End Day

OS:Schedule:Day,
  {aa0e57b2-316d-4606-bfb9-82cb76185e6c}, !- Handle
  NECB-B-Lighting Sat Day,                !- Name
  {0c799db5-d59e-443a-a550-2d45587025e3}, !- Schedule Type Limits Name
  No,                                     !- Interpolate to Timestep
  1,                                      !- Hour 1
  0,                                      !- Minute 1
  0.9,                                    !- Value Until Time 1
  2,                                      !- Hour 2
  0,                                      !- Minute 2
  0.5,                                    !- Value Until Time 2
  9,                                      !- Hour 3
  0,                                      !- Minute 3
  0.1,                                    !- Value Until Time 3
  10,                                     !- Hour 4
  0,                                      !- Minute 4
  0.5,                                    !- Value Until Time 4
  11,                                     !- Hour 5
  0,                                      !- Minute 5
  0.7,                                    !- Value Until Time 5
  24,                                     !- Hour 6
  0,                                      !- Minute 6
  0.9;                                    !- Value Until Time 6

OS:Schedule:Rule,
  {e31d1ab5-2503-475e-bf2f-e7bc208110df}, !- Handle
  Schedule Rule 7,                        !- Name
  {9681dea3-463a-45bb-a871-d3f4f1a5adfa}, !- Schedule Ruleset Name
  0,                                      !- Rule Order
  {dcf821df-d57a-4473-97a8-e9909d9a8db7}, !- Day Schedule Name
  Yes,                                    !- Apply Sunday
  ,                                       !- Apply Monday
  ,                                       !- Apply Tuesday
  ,                                       !- Apply Wednesday
  ,                                       !- Apply Thursday
  ,                                       !- Apply Friday
  ,                                       !- Apply Saturday
  DateRange,                              !- Date Specification Type
  1,                                      !- Start Month
  1,                                      !- Start Day
  12,                                     !- End Month
  31;                                     !- End Day

OS:Schedule:Day,
  {dcf821df-d57a-4473-97a8-e9909d9a8db7}, !- Handle
  NECB-B-Lighting Sun|Hol Day,            !- Name
  {0c799db5-d59e-443a-a550-2d45587025e3}, !- Schedule Type Limits Name
  No,                                     !- Interpolate to Timestep
  2,                                      !- Hour 1
  0,                                      !- Minute 1
  0.5,                                    !- Value Until Time 1
  10,                                     !- Hour 2
  0,                                      !- Minute 2
  0.1,                                    !- Value Until Time 2
  11,                                     !- Hour 3
  0,                                      !- Minute 3
  0.5,                                    !- Value Until Time 3
  23,                                     !- Hour 4
  0,                                      !- Minute 4
  0.9,                                    !- Value Until Time 4
  24,                                     !- Hour 5
  0,                                      !- Minute 5
  0.5;                                    !- Value Until Time 5

OS:Schedule:Ruleset,
  {caeca53b-4d7b-4364-9540-6a33b18c697c}, !- Handle
  NECB-B-Electric-Equipment,              !- Name
  {0c799db5-d59e-443a-a550-2d45587025e3}, !- Schedule Type Limits Name
  {7ce03aae-6cf5-47bb-9a2c-0a346fea6fb1}; !- Default Day Schedule Name

OS:Schedule:Day,
  {7ce03aae-6cf5-47bb-9a2c-0a346fea6fb1}, !- Handle
  NECB-B-Electric-Equipment Default,      !- Name
  {0c799db5-d59e-443a-a550-2d45587025e3}, !- Schedule Type Limits Name
  No,                                     !- Interpolate to Timestep
[...]
  0,                                      !- Minute 1
  1;                                      !- Value Until Time 1

OS:AvailabilityManager:NightCycle,
  {e5330a41-ca00-4b7f-ba08-1922d5580a4c}, !- Handle
  Availability Manager Night Cycle 1,     !- Name
  {3afd38d8-f152-4898-a5a3-e182a43adab8}, !- Applicability Schedule
  ,                                       !- Fan Schedule
  CycleOnAny,                             !- Control Type
  1,                                      !- Thermostat Tolerance {deltaC}
  ,                                       !- Cycling Run Time Control Type
  3600,                                   !- Cycling Run Time {s}
  {03d53ba4-a0d1-4d81-ade8-e2996d3e22cc}, !- Control Zone or Zone List Name
  {40e5d014-f9f9-4d5f-b5cb-baccdd3e5a38}, !- Cooling Control Zone or Zone List Name
  {e1437093-f6e0-4787-921e-f62adec4fbfa}, !- Heating Control Zone or Zone List Name
  {7b43117f-d17d-4348-8e89-e3339f331433}; !- Heating Zone Fans Only Zone or Zone List Name

OS:ModelObjectList,
  {03d53ba4-a0d1-4d81-ade8-e2996d3e22cc}, !- Handle
  Availability Manager Night Cycle 1 Control Zone List; !- Name

OS:ModelObjectList,
  {40e5d014-f9f9-4d5f-b5cb-baccdd3e5a38}, !- Handle
  Availability Manager Night Cycle 1 Cooling Control Zone List; !- Name

OS:ModelObjectList,
  {e1437093-f6e0-4787-921e-f62adec4fbfa}, !- Handle
  Availability Manager Night Cycle 1 Heating Control Zone List; !- Name

OS:ModelObjectList,
  {7b43117f-d17d-4348-8e89-e3339f331433}, !- Handle
  Availability Manager Night Cycle 1 Heating Zone Fans Only Zone List; !- Name

OS:Schedule:Ruleset,
  {80061b14-5956-4dc0-91cb-dd92aad1bcca}, !- Handle
  sys_3|mixed|shr>none|sc>dx|sh>c-e|ssf>cv|zh>b-e|zc>none|srf>none| Occ Sch, !- Name
  {0c799db5-d59e-443a-a550-2d45587025e3}, !- Schedule Type Limits Name
  {fb53db7a-8b2c-4131-836c-2528bcfcaf3d}, !- Default Day Schedule Name
  {da85870f-10d8-4925-9840-46222fa40fef}, !- Summer Design Day Schedule Name
  {30dce326-fea2-49cf-8a63-d25ed0e254e6}; !- Winter Design Day Schedule Name

OS:Schedule:Day,
  {fb53db7a-8b2c-4131-836c-2528bcfcaf3d}, !- Handle
  sys_3|mixed|shr>none|sc>dx|sh>c-e|ssf>cv|zh>b-e|zc>none|srf>none| Occ Sch Default, !- Name
  {0c799db5-d59e-443a-a550-2d45587025e3}, !- Schedule Type Limits Name
  ,                                       !- Interpolate to Timestep
  1,                                      !- Hour 1
  0,                                      !- Minute 1
  1,                                      !- Value Until Time 1
  10,                                     !- Hour 2
  0,                                      !- Minute 2
  0,                                      !- Value Until Time 2
  24,                                     !- Hour 3
  0,                                      !- Minute 3
  1;                                      !- Value Until Time 3

OS:AdditionalProperties,
  {f597633c-fb9c-4efd-afbc-d627ab5cd31c}, !- Handle
  {80061b14-5956-4dc0-91cb-dd92aad1bcca}, !- Object Name
  max_occ_in_spaces,                      !- Feature Name 1
  Double,                                 !- Feature Data Type 1
  37.173590704266502,                     !- Feature Value 1
  number_of_spaces_included,              !- Feature Name 2
  Integer,                                !- Feature Data Type 2
  1,                                      !- Feature Value 2
  date_parent_object_last_edited,         !- Feature Name 3
  String,                                 !- Feature Data Type 3
  2025-10-15 15:25:02 UTC,                !- Feature Value 3
  date_parent_object_created,             !- Feature Name 4
  String,                                 !- Feature Data Type 4
  2025-10-15 15:25:02 UTC;                !- Feature Value 4

OS:Schedule:Day,
  {30dce326-fea2-49cf-8a63-d25ed0e254e6}, !- Handle
  sys_3|mixed|shr>none|sc>dx|sh>c-e|ssf>cv|zh>b-e|zc>none|srf>none| Occ Sch Winter Design Day, !- Name
  {0c799db5-d59e-443a-a550-2d45587025e3}, !- Schedule Type Limits Name
  ,                                       !- Interpolate to Timestep
  24,                                     !- Hour 1
  0,                                      !- Minute 1
  1;                                      !- Value Until Time 1

OS:Schedule:Day,
  {da85870f-10d8-4925-9840-46222fa40fef}, !- Handle
  sys_3|mixed|shr>none|sc>dx|sh>c-e|ssf>cv|zh>b-e|zc>none|srf>none| Occ Sch Summer Design Day, !- Name
  {0c799db5-d59e-443a-a550-2d45587025e3}, !- Schedule Type Limits Name
  ,                                       !- Interpolate to Timestep
  24,                                     !- Hour 1
  0,                                      !- Minute 1
  1;                                      !- Value Until Time 1

OS:Schedule:Rule,
  {f68913f7-5c15-4ddf-ac18-36465e73c4cb}, !- Handle
  Schedule Rule 20,                       !- Name
  {80061b14-5956-4dc0-91cb-dd92aad1bcca}, !- Schedule Ruleset Name
  1,                                      !- Rule Order
  {46b79ed3-f0fe-44c7-977e-4b2bccd2aefc}, !- Day Schedule Name
  ,                                       !- Apply Sunday
  ,                                       !- Apply Monday
  ,                                       !- Apply Tuesday
  ,                                       !- Apply Wednesday
  ,                                       !- Apply Thursday
  ,                                       !- Apply Friday
  Yes,                                    !- Apply Saturday
  DateRange,                              !- Date Specification Type
  1,                                      !- Start Month
  7,                                      !- Start Day
  12,                                     !- End Month
  30;                                     !- End Day

OS:Schedule:Day,
  {46b79ed3-f0fe-44c7-977e-4b2bccd2aefc}, !- Handle
  Schedule Day 5,                         !- Name
  {0c799db5-d59e-443a-a550-2d45587025e3}, !- Schedule Type Limits Name
  ,                                       !- Interpolate to Timestep
  2,                                      !- Hour 1
  0,                                      !- Minute 1
  1,                                      !- Value Until Time 1
  10,                                     !- Hour 2
  0,                                      !- Minute 2
  0,                                      !- Value Until Time 2
  24,                                     !- Hour 3
  0,                                      !- Minute 3
  1;                                      !- Value Until Time 3

OS:Schedule:Rule,
  {cefde3e1-065b-40d1-ad98-a2094efc2dc4}, !- Handle
  Schedule Rule 21,                       !- Name
  {80061b14-5956-4dc0-91cb-dd92aad1bcca}, !- Schedule Ruleset Name
  0,                                      !- Rule Order
  {59d44f48-55da-4c1b-bda2-99353b734a27}, !- Day Schedule Name
  Yes,                                    !- Apply Sunday
  ,                                       !- Apply Monday
  ,                                       !- Apply Tuesday
  ,                                       !- Apply Wednesday
  ,                                       !- Apply Thursday
  ,                                       !- Apply Friday
  ,                                       !- Apply Saturday
  DateRange,                              !- Date Specification Type
  1,                                      !- Start Month
  1,                                      !- Start Day
  12,                                     !- End Month
  31;                                     !- End Day

OS:Schedule:Day,
  {59d44f48-55da-4c1b-bda2-99353b734a27}, !- Handle
  Schedule Day 6,                         !- Name
  {0c799db5-d59e-443a-a550-2d45587025e3}, !- Schedule Type Limits Name
  ,                                       !- Interpolate to Timestep
  1,                                      !- Hour 1
  0,                                      !- Minute 1
  0,                                      !- Value Until Time 1
  2,                                      !- Hour 2
  0,                                      !- Minute 2
  1,                                      !- Value Until Time 2
  11,                                     !- Hour 3
  0,                                      !- Minute 3
  0,                                      !- Value Until Time 3
  23,                                     !- Hour 4
  0,                                      !- Minute 4
  1,                                      !- Value Until Time 4
  24,                                     !- Hour 5
  0,                                      !- Minute 5
  0;                                      !- Value Until Time 5

OS:AvailabilityManager:NightCycle,
  {3d24c035-0e23-4045-bfbe-d0a57576202a}, !- Handle
  Availability Manager Night Cycle 2,     !- Name
  {3afd38d8-f152-4898-a5a3-e182a43adab8}, !- Applicability Schedule
  ,                                       !- Fan Schedule
  CycleOnAny,                             !- Control Type
  1,                                      !- Thermostat Tolerance {deltaC}
  ,                                       !- Cycling Run Time Control Type
  3600,                                   !- Cycling Run Time {s}
  {4a46c315-950f-4d24-aebd-021b026b2ee5}, !- Control Zone or Zone List Name
  {8e3b3fd6-312b-424f-a1d7-ade894f98c9c}, !- Cooling Control Zone or Zone List Name
  {32365760-9a41-4ab0-8bdf-75b59ce0b310}, !- Heating Control Zone or Zone List Name
  {1ee8f6a8-76e4-4023-be2b-cc239ad0f4f2}; !- Heating Zone Fans Only Zone or Zone List Name

OS:ModelObjectList,
  {4a46c315-950f-4d24-aebd-021b026b2ee5}, !- Handle
  Availability Manager Night Cycle 2 Control Zone List; !- Name

OS:ModelObjectList,
  {8e3b3fd6-312b-424f-a1d7-ade894f98c9c}, !- Handle
  Availability Manager Night Cycle 2 Cooling Control Zone List; !- Name

OS:ModelObjectList,
  {32365760-9a41-4ab0-8bdf-75b59ce0b310}, !- Handle
  Availability Manager Night Cycle 2 Heating Control Zone List; !- Name

OS:ModelObjectList,
  {1ee8f6a8-76e4-4023-be2b-cc239ad0f4f2}, !- Handle
  Availability Manager Night Cycle 2 Heating Zone Fans Only Zone List; !- Name

OS:Schedule:Ruleset,
  {a9ac62af-3fc4-4944-9992-d54b9bf2e5ee}, !- Handle
  sys_3|mixed|shr>none|sc>dx|sh>c-e|ssf>cv|zh>b-e|zc>none|srf>none| 1 Occ Sch, !- Name
  {0c799db5-d59e-443a-a550-2d45587025e3}, !- Schedule Type Limits Name
  {2e38a80e-adcd-4140-b7b3-9493e87db627}, !- Default Day Schedule Name
  {fd9c861a-3faf-4797-8248-4cb462b5e030}, !- Summer Design Day Schedule Name
  {898e251f-86d8-4f02-9c32-ad8c499bc88f}; !- Winter Design Day Schedule Name

OS:Schedule:Day,
  {2e38a80e-adcd-4140-b7b3-9493e87db627}, !- Handle
  sys_3|mixed|shr>none|sc>dx|sh>c-e|ssf>cv|zh>b-e|zc>none|srf>none| 1 Occ Sch Default, !- Name
  {0c799db5-d59e-443a-a550-2d45587025e3}, !- Schedule Type Limits Name
  ,                                       !- Interpolate to Timestep
  1,                                      !- Hour 1
  0,                                      !- Minute 1
  1,                                      !- Value Until Time 1
  10,                                     !- Hour 2
  0,                                      !- Minute 2
  0,                                      !- Value Until Time 2
  24,                                     !- Hour 3
  0,                                      !- Minute 3
  1;                                      !- Value Until Time 3

OS:AdditionalProperties,
  {030e2747-dc38-4fcc-9303-679c8391157a}, !- Handle
  {a9ac62af-3fc4-4944-9992-d54b9bf2e5ee}, !- Object Name
  max_occ_in_spaces,                      !- Feature Name 1
  Double,                                 !- Feature Data Type 1
  6.9775368548757921,                     !- Feature Value 1
  number_of_spaces_included,              !- Feature Name 2
  Integer,                                !- Feature Data Type 2
  1,                                      !- Feature Value 2
  date_parent_object_last_edited,         !- Feature Name 3
  String,                                 !- Feature Data Type 3
  2025-10-15 15:25:03 UTC,                !- Feature Value 3
  date_parent_object_created,             !- Feature Name 4
  String,                                 !- Feature Data Type 4
  2025-10-15 15:25:03 UTC;                !- Feature Value 4

OS:Schedule:Day,
  {898e251f-86d8-4f02-9c32-ad8c499bc88f}, !- Handle
  sys_3|mixed|shr>none|sc>dx|sh>c-e|ssf>cv|zh>b-e|zc>none|srf>none| 1 Occ Sch Winter Design Day, !- Name
  {0c799db5-d59e-443a-a550-2d45587025e3}, !- Schedule Type Limits Name
  ,                                       !- Interpolate to Timestep
  24,                                     !- Hour 1
  0,                                      !- Minute 1
  1;                                      !- Value Until Time 1

OS:Schedule:Day,
  {fd9c861a-3faf-4797-8248-4cb462b5e030}, !- Handle
  sys_3|mixed|shr>none|sc>dx|sh>c-e|ssf>cv|zh>b-e|zc>none|srf>none| 1 Occ Sch Summer Design Day, !- Name
  {0c799db5-d59e-443a-a550-2d45587025e3}, !- Schedule Type Limits Name
  ,                                       !- Interpolate to Timestep
  24,                                     !- Hour 1
  0,                                      !- Minute 1
  1;                                      !- Value Until Time 1

OS:Schedule:Rule,
  {34b286f9-1c9e-4b0f-9848-5a4e597549f5}, !- Handle
  Schedule Rule 22,                       !- Name
  {a9ac62af-3fc4-4944-9992-d54b9bf2e5ee}, !- Schedule Ruleset Name
  1,                                      !- Rule Order
  {1a29870b-7a01-424e-a781-43a87315817a}, !- Day Schedule Name
  ,                                       !- Apply Sunday
  ,                                       !- Apply Monday
  ,                                       !- Apply Tuesday
  ,                                       !- Apply Wednesday
  ,                                       !- Apply Thursday
  ,                                       !- Apply Friday
  Yes,                                    !- Apply Saturday
  DateRange,                              !- Date Specification Type
  1,                                      !- Start Month
  7,                                      !- Start Day
  12,                                     !- End Month
  30;                                     !- End Day

OS:Schedule:Day,
  {1a29870b-7a01-424e-a781-43a87315817a}, !- Handle
  Schedule Day 7,                         !- Name
  {0c799db5-d59e-443a-a550-2d45587025e3}, !- Schedule Type Limits Name
  ,                                       !- Interpolate to Timestep
  2,                                      !- Hour 1
  0,                                      !- Minute 1
  1,                                      !- Value Until Time 1
  10,                                     !- Hour 2
  0,                                      !- Minute 2
  0,                                      !- Value Until Time 2
  24,                                     !- Hour 3
  0,                                      !- Minute 3
  1;                                      !- Value Until Time 3

OS:Schedule:Rule,
  {8f7aa33c-4aa5-4842-bcf7-593afe07465a}, !- Handle
  Schedule Rule 23,                       !- Name
  {a9ac62af-3fc4-4944-9992-d54b9bf2e5ee}, !- Schedule Ruleset Name
  0,                                      !- Rule Order
  {ca37ff33-c492-46c6-b10e-7a90bcb54762}, !- Day Schedule Name
  Yes,                                    !- Apply Sunday
  ,                                       !- Apply Monday
  ,                                       !- Apply Tuesday
  ,                                       !- Apply Wednesday
  ,                                       !- Apply Thursday
  ,                                       !- Apply Friday
  ,                                       !- Apply Saturday
  DateRange,                              !- Date Specification Type
  1,                                      !- Start Month
  1,                                      !- Start Day
  12,                                     !- End Month
  31;                                     !- End Day

OS:Schedule:Day,
  {ca37ff33-c492-46c6-b10e-7a90bcb54762}, !- Handle
  Schedule Day 8,                         !- Name
  {0c799db5-d59e-443a-a550-2d45587025e3}, !- Schedule Type Limits Name
  ,                                       !- Interpolate to Timestep
  1,                                      !- Hour 1
  0,                                      !- Minute 1
  0,                                      !- Value Until Time 1
  2,                                      !- Hour 2
  0,                                      !- Minute 2
  1,                                      !- Value Until Time 2
  11,                                     !- Hour 3
  0,                                      !- Minute 3
  0,                                      !- Value Until Time 3
  23,                                     !- Hour 4
  0,                                      !- Minute 4
  1,                                      !- Value Until Time 4
  24,                                     !- Hour 5
  0,                                      !- Minute 5
  0;                                      !- Value Until Time 5

OS:Curve:Biquadratic,
  {93bcdea4-fed0-4acf-8f77-016fae327286}, !- Handle
  DXCOOL-NECB2011-REF-CAPFT,              !- Name
  0.867905,                               !- Coefficient1 Constant
  0.0142459,                              !- Coefficient2 x
  0.00055436,                             !- Coefficient3 x**2
  -0.0075575,                             !- Coefficient4 y
  3.3e-05,                                !- Coefficient5 y**2
  -0.0001918,                             !- Coefficient6 x*y
  13,                                     !- Minimum Value of x
  24,                                     !- Maximum Value of x
  24,                                     !- Minimum Value of y
  46;                                     !- Maximum Value of y

OS:Curve:Quadratic,
  {2d14074f-bd5a-47dd-aa68-7139bfe20b47}, !- Handle
  DXCOOL-NECB2011-REF-CAPFFLOW,           !- Name
  0.8,                                    !- Coefficient1 Constant
  0.2,                                    !- Coefficient2 x
  0,                                      !- Coefficient3 x**2
  0.5,                                    !- Minimum Value of x
  1.5;                                    !- Maximum Value of x

OS:Curve:Biquadratic,
  {894a5514-256b-4c27-bd82-0892105babb1}, !- Handle
  DXCOOL-NECB2011-REF-COOLEIRFT,          !- Name
  0.1141714,                              !- Coefficient1 Constant
  0.02818224,                             !- Coefficient2 x
  -0.0004199,                             !- Coefficient3 x**2
  0.02141082,                             !- Coefficient4 y
  0.000161028,                            !- Coefficient5 y**2
  -0.000679104,                           !- Coefficient6 x*y
  13,                                     !- Minimum Value of x
  24,                                     !- Maximum Value of x
  24,                                     !- Minimum Value of y
  46;                                     !- Maximum Value of y

OS:Curve:Quadratic,
  {c67c53df-a5e7-4f45-be17-db022d25db87}, !- Handle
  DXCOOL-NECB2011-REF-COOLEIRFFLOW,       !- Name
  1.1552,                                 !- Coefficient1 Constant
  -0.1808,                                !- Coefficient2 x
  0.0256,                                 !- Coefficient3 x**2
  0.5,                                    !- Minimum Value of x
  1.5;                                    !- Maximum Value of x

OS:Curve:Cubic,
  {906c18fa-e22f-4648-95f0-fe31b9e811fe}, !- Handle
  DXCOOL-NECB2011-REF-COOLPLFFPLR,        !- Name
  0.0277,                                 !- Coefficient1 Constant
  4.9151,                                 !- Coefficient2 x
  -8.184,                                 !- Coefficient3 x**2
  4.2702,                                 !- Coefficient4 x**3
  0.7,                                    !- Minimum Value of x
  1;                                      !- Maximum Value of x

