
OS:Version,
  {03f72ae7-fcbe-440e-9460-d86f45cac1cb}, !- Handle
  3.9.0;                                  !- Version Identifier

OS:ScheduleTypeLimits,
  {fb69f2b2-56f8-42b0-b709-f9e5d97e84c3}, !- Handle
  Always On Discrete Limits,              !- Name
  0,                                      !- Lower Limit Value
  1,                                      !- Upper Limit Value
  Discrete,                               !- Numeric Type
  Availability;                           !- Unit Type

OS:Timestep,
  {b0fa043b-3e91-4705-b798-a26bbea47620}, !- Handle
  6;                                      !- Number of Timesteps per Hour

OS:YearDescription,
  {2759562d-6e36-40de-aa86-5c2198a9d34c}, !- Handle
  ,                                       !- Calendar Year
  Sunday;                                 !- Day of Week for Start Day

OS:Connection,
  {5bae42aa-910b-413c-9bf1-37c522919800}, !- Handle
  ,                                       !- Source Object
  11,                                     !- Outlet Port
  ,                                       !- Target Object
  2;                                      !- Inlet Port

OS:Space,
  {c9532ad7-da0a-45f9-96ed-ea62ab17db64}, !- Handle
  Core_mid,                               !- Name
  {cbc1800d-3058-4bca-9be8-d37e6a76ff55}, !- Space Type Name
  ,                                       !- Default Construction Set Name
  ,                                       !- Default Schedule Set Name
  -0,                                     !- Direction of Relative North {deg}
  5.4876,                                 !- X Origin {m}
  4.5732,                                 !- Y Origin {m}
  19.816,                                 !- Z Origin {m}
  {90e8f18c-4e90-4136-9df3-52f333e3fb0e}, !- Building Story Name
  {7204657e-94a5-4d06-ac03-5301bab290b9}, !- Thermal Zone Name
  Yes,                                    !- Part of Total Floor Area
  ,                                       !- Design Specification Outdoor Air Object Name
  ,                                       !- Building Unit Name
  Autocalculate;                          !- Volume {m3}

OS:Surface,
  {503cbf06-b696-47b8-902a-5f4f090ce948}, !- Handle
  DataCenter_top_ZN_6_Floor,              !- Name
  Floor,                                  !- Surface Type
  {033de29d-b4aa-42d0-8ac4-d33a9c0dcbfc}, !- Construction Name
  {ad63a923-b138-4343-b031-0f686a9aa91f}, !- Space Name
  Adiabatic,                              !- Outside Boundary Condition
  ,                                       !- Outside Boundary Condition Object
  NoSun,                                  !- Sun Exposure
  NoWind,                                 !- Wind Exposure
  0,                                      !- View Factor to Ground
  ,                                       !- Number of Vertices
  0.9144, 39.5918, 0,                     !- X,Y,Z Vertex 1 {m}
  0.9144, 0, 0,                           !- X,Y,Z Vertex 2 {m}
  0, 0, 0,                                !- X,Y,Z Vertex 3 {m}
  0, 39.5918, 0;                          !- X,Y,Z Vertex 4 {m}

OS:Connection,
  {32a16ddd-3d4f-4c9b-b883-8d736da632a9}, !- Handle
  ,                                       !- Source Object
  11,                                     !- Outlet Port
  ,                                       !- Target Object
  2;                                      !- Inlet Port

OS:Space,
  {ad63a923-b138-4343-b031-0f686a9aa91f}, !- Handle
  DataCenter_top_ZN_6,                    !- Name
  {cbc1800d-3058-4bca-9be8-d37e6a76ff55}, !- Space Type Name
  ,                                       !- Default Construction Set Name
  ,                                       !- Default Schedule Set Name
  -0,                                     !- Direction of Relative North {deg}
  4.5732,                                 !- X Origin {m}
  4.5732,                                 !- Y Origin {m}
  43.5952,                                !- Z Origin {m}
  {f4d26ab6-6069-4f95-a4bb-2505ee54b65c}, !- Building Story Name
  {e1c588c1-6cfe-448b-8965-985b38be4c1b}, !- Thermal Zone Name
  ,                                       !- Part of Total Floor Area
  ,                                       !- Design Specification Outdoor Air Object Name
  ,                                       !- Building Unit Name
  Autocalculate;                          !- Volume {m3}

OS:Surface,
  {9f946c4f-a94d-4946-87a0-204ee59b1052}, !- Handle
  Perimeter_mid_ZN_2_Wall_East,           !- Name
  Wall,                                   !- Surface Type
  ,                                       !- Construction Name
  {7e340c82-5b29-41c5-9ccd-9a28338e4ae1}, !- Space Name
  Outdoors,                               !- Outside Boundary Condition
  ,                                       !- Outside Boundary Condition Object
  SunExposed,                             !- Sun Exposure
  WindExposed,                            !- Wind Exposure
  ,                                       !- View Factor to Ground
  ,                                       !- Number of Vertices
  4.5732, 0, 2.744,                       !- X,Y,Z Vertex 1 {m}
  4.5732, 0, 0,                           !- X,Y,Z Vertex 2 {m}
  4.5732, 48.7381, 0,                     !- X,Y,Z Vertex 3 {m}
  4.5732, 48.7381, 2.744;                 !- X,Y,Z Vertex 4 {m}

OS:Connection,
  {645d04e0-4f17-4ec0-b149-bb89a6ef1e82}, !- Handle
  ,                                       !- Source Object
  11,                                     !- Outlet Port
  ,                                       !- Target Object
  2;                                      !- Inlet Port

OS:Space,
  {7e340c82-5b29-41c5-9ccd-9a28338e4ae1}, !- Handle
  Perimeter_mid_ZN_2,                     !- Name
  {cbc1800d-3058-4bca-9be8-d37e6a76ff55}, !- Space Type Name
  ,                                       !- Default Construction Set Name
  ,                                       !- Default Schedule Set Name
  -0,                                     !- Direction of Relative North {deg}
  68.534,                                 !- X Origin {m}
  0,                                      !- Y Origin {m}
  19.816,                                 !- Z Origin {m}
  {90e8f18c-4e90-4136-9df3-52f333e3fb0e}, !- Building Story Name
  {777ad855-e7ea-4025-822e-0c5ac89c193b}, !- Thermal Zone Name
  Yes,                                    !- Part of Total Floor Area
  ,                                       !- Design Specification Outdoor Air Object Name
  ,                                       !- Building Unit Name
  Autocalculate;                          !- Volume {m3}

OS:Surface,
  {370e7613-b020-4b6d-9a06-8f9b943f6665}, !- Handle
  Perimeter_mid_ZN_1_Ceiling,             !- Name
  RoofCeiling,                            !- Surface Type
  ,                                       !- Construction Name
  {fbcda114-4a6f-4d17-ba38-7d71c7b8bbff}, !- Space Name
  Surface,                                !- Outside Boundary Condition
  {9cd5a643-1952-4351-bac4-6ce973890b8f}, !- Outside Boundary Condition Object
  NoSun,                                  !- Sun Exposure
  NoWind,                                 !- Wind Exposure
  ,                                       !- View Factor to Ground
  ,                                       !- Number of Vertices
  73.1072, 0, 2.744,                      !- X,Y,Z Vertex 1 {m}
  68.534, 4.5732, 2.744,                  !- X,Y,Z Vertex 2 {m}
  4.5732, 4.5732, 2.744,                  !- X,Y,Z Vertex 3 {m}
  0, 0, 2.744;                            !- X,Y,Z Vertex 4 {m}

OS:Connection,
  {7abf3751-f702-4fe6-ae5f-b74b2eb0bca6}, !- Handle
  ,                                       !- Source Object
  11,                                     !- Outlet Port
  ,                                       !- Target Object
  2;                                      !- Inlet Port

OS:Space,
  {fbcda114-4a6f-4d17-ba38-7d71c7b8bbff}, !- Handle
  Perimeter_mid_ZN_1,                     !- Name
  {cbc1800d-3058-4bca-9be8-d37e6a76ff55}, !- Space Type Name
  ,                                       !- Default Construction Set Name
  ,                                       !- Default Schedule Set Name
  -0,                                     !- Direction of Relative North {deg}
  0,                                      !- X Origin {m}
  0,                                      !- Y Origin {m}
  19.816,                                 !- Z Origin {m}
  {90e8f18c-4e90-4136-9df3-52f333e3fb0e}, !- Building Story Name
  {ed34e757-741b-466d-b18d-8fb1ac1e44a4}, !- Thermal Zone Name
  Yes,                                    !- Part of Total Floor Area
  ,                                       !- Design Specification Outdoor Air Object Name
  ,                                       !- Building Unit Name
  Autocalculate;                          !- Volume {m3}

OS:Connection,
  {9393ffb6-9c9d-4309-b9b2-f354ef4e756c}, !- Handle
  ,                                       !- Source Object
  11,                                     !- Outlet Port
  ,                                       !- Target Object
  2;                                      !- Inlet Port

OS:Space,
  {d6fae17a-2423-4ae7-b189-02f65601f395}, !- Handle
  MidFloor_Plenum,                        !- Name
  {89f0d366-eba1-4d30-847b-e0e91684e056}, !- Space Type Name
  ,                                       !- Default Construction Set Name
  ,                                       !- Default Schedule Set Name
  -0,                                     !- Direction of Relative North {deg}
  0,                                      !- X Origin {m}
  0,                                      !- Y Origin {m}
  22.56,                                  !- Z Origin {m}
  {90e8f18c-4e90-4136-9df3-52f333e3fb0e}, !- Building Story Name
  {accacd1a-29d2-4141-9cc5-bd6b26303e83}, !- Thermal Zone Name
  No,                                     !- Part of Total Floor Area
  ,                                       !- Design Specification Outdoor Air Object Name
  ,                                       !- Building Unit Name
  Autocalculate;                          !- Volume {m3}

OS:Surface,
  {9cd5a643-1952-4351-bac4-6ce973890b8f}, !- Handle
  Perimeter_mid_ZN_1_Ceiling Reversed,    !- Name
  Floor,                                  !- Surface Type
  ,                                       !- Construction Name
  {d6fae17a-2423-4ae7-b189-02f65601f395}, !- Space Name
  Surface,                                !- Outside Boundary Condition
  {370e7613-b020-4b6d-9a06-8f9b943f6665}, !- Outside Boundary Condition Object
  NoSun,                                  !- Sun Exposure
  NoWind,                                 !- Wind Exposure
  ,                                       !- View Factor to Ground
  ,                                       !- Number of Vertices
  68.534, 4.5732, 0,                      !- X,Y,Z Vertex 1 {m}
  73.1072, 0, 0,                          !- X,Y,Z Vertex 2 {m}
  0, 0, 0,                                !- X,Y,Z Vertex 3 {m}
  4.5732, 4.5732, 0;                      !- X,Y,Z Vertex 4 {m}

OS:Surface,
  {9fc7900b-60c5-4318-be68-c2a994c9c978}, !- Handle
  DataCenter_mid_ZN_6_Wall_West,          !- Name
  Wall,                                   !- Surface Type
  ,                                       !- Construction Name
  {2c6ae4f5-d65e-4636-8802-7d13d7260722}, !- Space Name
  Surface,                                !- Outside Boundary Condition
  {82f55c5e-745b-4c15-a423-60bddbf56c5a}, !- Outside Boundary Condition Object
  NoSun,                                  !- Sun Exposure
  NoWind,                                 !- Wind Exposure
  0,                                      !- View Factor to Ground
  ,                                       !- Number of Vertices
  0, 39.5918, 2.744,                      !- X,Y,Z Vertex 1 {m}
  0, 39.5918, 0,                          !- X,Y,Z Vertex 2 {m}
  0, 0, 0,                                !- X,Y,Z Vertex 3 {m}
  0, 0, 2.744;                            !- X,Y,Z Vertex 4 {m}

OS:Connection,
  {9681051a-f3a5-4053-856c-37ade7c423f7}, !- Handle
  ,                                       !- Source Object
  11,                                     !- Outlet Port
  ,                                       !- Target Object
  2;                                      !- Inlet Port

OS:Space,
  {2c6ae4f5-d65e-4636-8802-7d13d7260722}, !- Handle
  DataCenter_mid_ZN_6,                    !- Name
  {cbc1800d-3058-4bca-9be8-d37e6a76ff55}, !- Space Type Name
  ,                                       !- Default Construction Set Name
  ,                                       !- Default Schedule Set Name
  -0,                                     !- Direction of Relative North {deg}
  4.5732,                                 !- X Origin {m}
  4.5732,                                 !- Y Origin {m}
  19.816,                                 !- Z Origin {m}
  {90e8f18c-4e90-4136-9df3-52f333e3fb0e}, !- Building Story Name
  {d41a5e1f-e2fb-48ed-a2ea-d1638d6062e7}, !- Thermal Zone Name
  ,                                       !- Part of Total Floor Area
  ,                                       !- Design Specification Outdoor Air Object Name
  ,                                       !- Building Unit Name
  Autocalculate;                          !- Volume {m3}

OS:Connection,
  {77b940a1-bfdd-4414-ad3c-632f18882d3f}, !- Handle
  ,                                       !- Source Object
  11,                                     !- Outlet Port
  ,                                       !- Target Object
  2;                                      !- Inlet Port

OS:Space,
  {252d5491-4adf-40c7-b2c2-5f3c366963cc}, !- Handle
  Core_bottom,                            !- Name
  {cbc1800d-3058-4bca-9be8-d37e6a76ff55}, !- Space Type Name
  ,                                       !- Default Construction Set Name
  ,                                       !- Default Schedule Set Name
  -0,                                     !- Direction of Relative North {deg}
  5.4876,                                 !- X Origin {m}
  4.5732,                                 !- Y Origin {m}
  0,                                      !- Z Origin {m}
  {1bf14578-5317-4bb7-bb78-67bfc4cef2af}, !- Building Story Name
  {49f3d5bb-fd10-4651-ab6c-996ad2b490b7}, !- Thermal Zone Name
  Yes,                                    !- Part of Total Floor Area
  ,                                       !- Design Specification Outdoor Air Object Name
  ,                                       !- Building Unit Name
  Autocalculate;                          !- Volume {m3}

OS:Surface,
  {3fc96f62-dfdc-4573-82ee-671168d1232f}, !- Handle
  DataCenter_basement_ZN_6_Ceiling-Core_bot_ZN_5-PPAutoCreateOther, !- Name
  Floor,                                  !- Surface Type
  ,                                       !- Construction Name
  {252d5491-4adf-40c7-b2c2-5f3c366963cc}, !- Space Name
  Surface,                                !- Outside Boundary Condition
  {9c4cd6ed-9920-48ea-acd5-53d88fdbc4ec}, !- Outside Boundary Condition Object
  NoSun,                                  !- Sun Exposure
  NoWind,                                 !- Wind Exposure
  0,                                      !- View Factor to Ground
  ,                                       !- Number of Vertices
  10.5906, 39.5918, 0,                    !- X,Y,Z Vertex 1 {m}
  10.5906, 0, 0,                          !- X,Y,Z Vertex 2 {m}
  0, 0, 0,                                !- X,Y,Z Vertex 3 {m}
  0, 39.5918, 0;                          !- X,Y,Z Vertex 4 {m}

OS:Surface,
  {8cee6b0e-b327-4162-99af-bdd3fad8a288}, !- Handle
  Core_top_ZN_5_Wall_North-PPAutoCreateOther, !- Name
  Wall,                                   !- Surface Type
  ,                                       !- Construction Name
  {bf3e28c0-5c36-4ba7-8f6b-40c5c095b5f0}, !- Space Name
  Surface,                                !- Outside Boundary Condition
  {72a13a95-e4f4-4099-bbc4-a7b9a3d27dfa}, !- Outside Boundary Condition Object
  NoSun,                                  !- Sun Exposure
  NoWind,                                 !- Wind Exposure
  ,                                       !- View Factor to Ground
  ,                                       !- Number of Vertices
  5.4876, 0, 2.744,                       !- X,Y,Z Vertex 1 {m}
  5.4876, 0, 0,                           !- X,Y,Z Vertex 2 {m}
  68.534, 0, 0,                           !- X,Y,Z Vertex 3 {m}
  68.534, 0, 2.744;                       !- X,Y,Z Vertex 4 {m}

OS:Connection,
  {0e19e1d7-0299-4b30-b129-a244565ae369}, !- Handle
  ,                                       !- Source Object
  11,                                     !- Outlet Port
  ,                                       !- Target Object
  2;                                      !- Inlet Port

OS:Space,
  {bf3e28c0-5c36-4ba7-8f6b-40c5c095b5f0}, !- Handle
  Perimeter_top_ZN_3,                     !- Name
  {cbc1800d-3058-4bca-9be8-d37e6a76ff55}, !- Space Type Name
  ,                                       !- Default Construction Set Name
  ,                                       !- Default Schedule Set Name
  -0,                                     !- Direction of Relative North {deg}
  -7.21911419532262e-16,                  !- X Origin {m}
  44.165,                                 !- Y Origin {m}
  43.5952,                                !- Z Origin {m}
  {f4d26ab6-6069-4f95-a4bb-2505ee54b65c}, !- Building Story Name
  {b67a53be-a059-4e91-90bf-b826bc6e9b2b}, !- Thermal Zone Name
  Yes,                                    !- Part of Total Floor Area
  ,                                       !- Design Specification Outdoor Air Object Name
  ,                                       !- Building Unit Name
  Autocalculate;                          !- Volume {m3}

OS:Surface,
  {df5f6311-1983-4839-adb4-7ba4f4e7bbb8}, !- Handle
  Core_top_ZN_5_Wall_West,                !- Name
  Wall,                                   !- Surface Type
  ,                                       !- Construction Name
  {c37fd6ec-d4bc-468a-8c95-3ae276d0b5cb}, !- Space Name
  Surface,                                !- Outside Boundary Condition
  {3a8bc761-afcd-446c-955c-8e3f0810fe12}, !- Outside Boundary Condition Object
  NoSun,                                  !- Sun Exposure
  NoWind,                                 !- Wind Exposure
  ,                                       !- View Factor to Ground
  ,                                       !- Number of Vertices
  0, 39.5918, 2.744,                      !- X,Y,Z Vertex 1 {m}
  0, 39.5918, 0,                          !- X,Y,Z Vertex 2 {m}
  0, 0, 0,                                !- X,Y,Z Vertex 3 {m}
  0, 0, 2.744;                            !- X,Y,Z Vertex 4 {m}

OS:Connection,
  {8afa0a8b-ee8f-4b3c-8e8f-0ca3fc7dde2f}, !- Handle
  ,                                       !- Source Object
  11,                                     !- Outlet Port
  ,                                       !- Target Object
  2;                                      !- Inlet Port

OS:Space,
  {c37fd6ec-d4bc-468a-8c95-3ae276d0b5cb}, !- Handle
  Core_top,                               !- Name
  {cbc1800d-3058-4bca-9be8-d37e6a76ff55}, !- Space Type Name
  ,                                       !- Default Construction Set Name
  ,                                       !- Default Schedule Set Name
  -0,                                     !- Direction of Relative North {deg}
  5.4876,                                 !- X Origin {m}
  4.5732,                                 !- Y Origin {m}
  43.5952,                                !- Z Origin {m}
  {f4d26ab6-6069-4f95-a4bb-2505ee54b65c}, !- Building Story Name
  {cc3daf6e-1de7-427f-bde2-ea96d0322145}, !- Thermal Zone Name
  Yes,                                    !- Part of Total Floor Area
  ,                                       !- Design Specification Outdoor Air Object Name
  ,                                       !- Building Unit Name
  Autocalculate;                          !- Volume {m3}

OS:Surface,
  {2faf7f65-dc91-4a4d-b0f7-4f072bfecaca}, !- Handle
  Perimeter_bot_ZN_3_Floor,               !- Name
  Floor,                                  !- Surface Type
  ,                                       !- Construction Name
  {d59c9de6-0b6a-4003-83b3-9abbb0fc11e6}, !- Space Name
  Surface,                                !- Outside Boundary Condition
  {32afe101-496f-43d3-9c79-7a7981fd2075}, !- Outside Boundary Condition Object
  NoSun,                                  !- Sun Exposure
  NoWind,                                 !- Wind Exposure
  ,                                       !- View Factor to Ground
  ,                                       !- Number of Vertices
  73.1072, 4.5731, 0,                     !- X,Y,Z Vertex 1 {m}
  68.534, 0, 0,                           !- X,Y,Z Vertex 2 {m}
  16.0782, 0, 0,                          !- X,Y,Z Vertex 3 {m}
  16.0782, 4.5731, 0;                     !- X,Y,Z Vertex 4 {m}

OS:Connection,
  {3d32fb73-f9c5-4bdc-a228-0ecec70b892f}, !- Handle
  ,                                       !- Source Object
  11,                                     !- Outlet Port
  ,                                       !- Target Object
  2;                                      !- Inlet Port

OS:Space,
  {d59c9de6-0b6a-4003-83b3-9abbb0fc11e6}, !- Handle
  Perimeter_bot_ZN_3,                     !- Name
  {cbc1800d-3058-4bca-9be8-d37e6a76ff55}, !- Space Type Name
  ,                                       !- Default Construction Set Name
  ,                                       !- Default Schedule Set Name
  -0,                                     !- Direction of Relative North {deg}
  0,                                      !- X Origin {m}
  44.165,                                 !- Y Origin {m}
  0,                                      !- Z Origin {m}
  {1bf14578-5317-4bb7-bb78-67bfc4cef2af}, !- Building Story Name
  {27a39218-36da-42c5-b0fd-defc5e3825e2}, !- Thermal Zone Name
  Yes,                                    !- Part of Total Floor Area
  ,                                       !- Design Specification Outdoor Air Object Name
  ,                                       !- Building Unit Name
  Autocalculate;                          !- Volume {m3}

OS:Surface,
  {32149b41-adb7-4b41-ad95-c08825e09295}, !- Handle
  DataCenter_basement_ZN_6_Ceiling-Perimeter_bot_ZN_3-PPAutoCreateOther, !- Name
  Floor,                                  !- Surface Type
  ,                                       !- Construction Name
  {d59c9de6-0b6a-4003-83b3-9abbb0fc11e6}, !- Space Name
  Surface,                                !- Outside Boundary Condition
  {b1dd3025-42eb-41bc-bddf-fec82b89cafe}, !- Outside Boundary Condition Object
  NoSun,                                  !- Sun Exposure
  NoWind,                                 !- Wind Exposure
  0,                                      !- View Factor to Ground
  ,                                       !- Number of Vertices
  16.0782, 4.5731, 0,                     !- X,Y,Z Vertex 1 {m}
  16.0782, 0, 0,                          !- X,Y,Z Vertex 2 {m}
  4.5732, 0, 0,                           !- X,Y,Z Vertex 3 {m}
  0, 4.5731, 0;                           !- X,Y,Z Vertex 4 {m}

OS:Surface,
  {854b52f5-21fb-456c-860e-acb024deb99a}, !- Handle
  Basement_Wall_North,                    !- Name
  Wall,                                   !- Surface Type
  {1fa63807-b83a-4abb-9ae6-788d2f73ca45}, !- Construction Name
  {5eccad29-dadd-43c0-a26c-31e00e7702be}, !- Space Name
  Foundation,                             !- Outside Boundary Condition
  {70459b4e-ebec-4329-8d4b-4fe36040122f}, !- Outside Boundary Condition Object
  NoSun,                                  !- Sun Exposure
  NoWind,                                 !- Wind Exposure
  0,                                      !- View Factor to Ground
  ,                                       !- Number of Vertices
  57.0278, 48.7381, 2.439,                !- X,Y,Z Vertex 1 {m}
  57.0278, 48.7381, 0,                    !- X,Y,Z Vertex 2 {m}
  0, 48.7381, 0,                          !- X,Y,Z Vertex 3 {m}
  0, 48.7381, 2.439;                      !- X,Y,Z Vertex 4 {m}

OS:Connection,
  {369ba6a2-fece-4fdc-b5da-a7d152f0d596}, !- Handle
  ,                                       !- Source Object
  11,                                     !- Outlet Port
  ,                                       !- Target Object
  2;                                      !- Inlet Port

OS:Space,
  {5eccad29-dadd-43c0-a26c-31e00e7702be}, !- Handle
  Basement,                               !- Name
  {5abd617c-0032-4623-94a3-ca7b89d01fa8}, !- Space Type Name
  ,                                       !- Default Construction Set Name
  ,                                       !- Default Schedule Set Name
  -0,                                     !- Direction of Relative North {deg}
  16.0794,                                !- X Origin {m}
  0,                                      !- Y Origin {m}
  -2.439,                                 !- Z Origin {m}
  {34fed859-ffd9-4b75-89d6-fc353a47f793}, !- Building Story Name
  {86d78833-055c-4151-9260-cce5fdf30298}, !- Thermal Zone Name
  Yes,                                    !- Part of Total Floor Area
  ,                                       !- Design Specification Outdoor Air Object Name
  ,                                       !- Building Unit Name
  Autocalculate;                          !- Volume {m3}

OS:Surface,
  {4ac6ea44-6fad-4d22-9242-726039b5b7bb}, !- Handle
  Perimeter_bot_ZN_4_Wall_South-PPAutoCreateOther, !- Name
  Wall,                                   !- Surface Type
  ,                                       !- Construction Name
  {2ff425f9-c1f4-46e4-a7b6-d29a1f6709fc}, !- Space Name
  Surface,                                !- Outside Boundary Condition
  {bc756393-0073-4502-8f6d-e63a633caa70}, !- Outside Boundary Condition Object
  NoSun,                                  !- Sun Exposure
  NoWind,                                 !- Wind Exposure
  ,                                       !- View Factor to Ground
  ,                                       !- Number of Vertices
  4.5732, 4.5732, 2.744,                  !- X,Y,Z Vertex 1 {m}
  4.5732, 4.5732, 0,                      !- X,Y,Z Vertex 2 {m}
  0, 0, 0,                                !- X,Y,Z Vertex 3 {m}
  0, 0, 2.744;                            !- X,Y,Z Vertex 4 {m}

OS:Connection,
  {bd5182e7-3f50-417b-ad69-5b0a16f52fb6}, !- Handle
  ,                                       !- Source Object
  11,                                     !- Outlet Port
  ,                                       !- Target Object
  2;                                      !- Inlet Port

OS:Space,
  {2ff425f9-c1f4-46e4-a7b6-d29a1f6709fc}, !- Handle
  Perimeter_bot_ZN_1,                     !- Name
  {cbc1800d-3058-4bca-9be8-d37e6a76ff55}, !- Space Type Name
  ,                                       !- Default Construction Set Name
  ,                                       !- Default Schedule Set Name
  -0,                                     !- Direction of Relative North {deg}
  0,                                      !- X Origin {m}
  0,                                      !- Y Origin {m}
  0,                                      !- Z Origin {m}
  {1bf14578-5317-4bb7-bb78-67bfc4cef2af}, !- Building Story Name
  {fc472413-69b7-4fd9-aafa-d697936acc43}, !- Thermal Zone Name
  Yes,                                    !- Part of Total Floor Area
  ,                                       !- Design Specification Outdoor Air Object Name
  ,                                       !- Building Unit Name
  Autocalculate;                          !- Volume {m3}

OS:Surface,
  {348fd855-e97f-4cdb-a25d-8816afdd6950}, !- Handle
  Core_mid_ZN_5_Floor,                    !- Name
  Floor,                                  !- Surface Type
  {033de29d-b4aa-42d0-8ac4-d33a9c0dcbfc}, !- Construction Name
  {c9532ad7-da0a-45f9-96ed-ea62ab17db64}, !- Space Name
  Adiabatic,                              !- Outside Boundary Condition
  ,                                       !- Outside Boundary Condition Object
  NoSun,                                  !- Sun Exposure
  NoWind,                                 !- Wind Exposure
  ,                                       !- View Factor to Ground
  ,                                       !- Number of Vertices
  63.0464, 39.5918, 0,                    !- X,Y,Z Vertex 1 {m}
  63.0464, 0, 0,                          !- X,Y,Z Vertex 2 {m}
  0, 0, 0,                                !- X,Y,Z Vertex 3 {m}
  0, 39.5918, 0;                          !- X,Y,Z Vertex 4 {m}

OS:Surface,
  {32afe101-496f-43d3-9c79-7a7981fd2075}, !- Handle
  Perimeter_bot_ZN_3_Floor-PPAutoCreateOther, !- Name
  RoofCeiling,                            !- Surface Type
  ,                                       !- Construction Name
  {5eccad29-dadd-43c0-a26c-31e00e7702be}, !- Space Name
  Surface,                                !- Outside Boundary Condition
  {2faf7f65-dc91-4a4d-b0f7-4f072bfecaca}, !- Outside Boundary Condition Object
  NoSun,                                  !- Sun Exposure
  NoWind,                                 !- Wind Exposure
  0,                                      !- View Factor to Ground
  ,                                       !- Number of Vertices
  52.4546, 44.165, 2.439,                 !- X,Y,Z Vertex 1 {m}
  57.0278, 48.7381, 2.439,                !- X,Y,Z Vertex 2 {m}
  0, 48.7381, 2.439,                      !- X,Y,Z Vertex 3 {m}
  0, 44.165, 2.439;                       !- X,Y,Z Vertex 4 {m}

OS:Surface,
  {0f1914d6-ade6-41b4-8464-a6e8d7b35a54}, !- Handle
  Perimeter_mid_ZN_3_Wall_North,          !- Name
  Wall,                                   !- Surface Type
  ,                                       !- Construction Name
  {acc296c2-5131-4947-b8bf-97711c02ad52}, !- Space Name
  Outdoors,                               !- Outside Boundary Condition
  ,                                       !- Outside Boundary Condition Object
  SunExposed,                             !- Sun Exposure
  WindExposed,                            !- Wind Exposure
  ,                                       !- View Factor to Ground
  ,                                       !- Number of Vertices
  73.1072, 4.5731, 2.744,                 !- X,Y,Z Vertex 1 {m}
  73.1072, 4.5731, 0,                     !- X,Y,Z Vertex 2 {m}
  0, 4.5731, 0,                           !- X,Y,Z Vertex 3 {m}
  0, 4.5731, 2.744;                       !- X,Y,Z Vertex 4 {m}

OS:Connection,
  {4bef2448-43f2-4269-a794-d6d35454c2e8}, !- Handle
  ,                                       !- Source Object
  11,                                     !- Outlet Port
  ,                                       !- Target Object
  2;                                      !- Inlet Port

OS:Space,
  {acc296c2-5131-4947-b8bf-97711c02ad52}, !- Handle
  Perimeter_mid_ZN_3,                     !- Name
  {cbc1800d-3058-4bca-9be8-d37e6a76ff55}, !- Space Type Name
  ,                                       !- Default Construction Set Name
  ,                                       !- Default Schedule Set Name
  -0,                                     !- Direction of Relative North {deg}
  0,                                      !- X Origin {m}
  44.165,                                 !- Y Origin {m}
  19.816,                                 !- Z Origin {m}
  {90e8f18c-4e90-4136-9df3-52f333e3fb0e}, !- Building Story Name
  {2c63ab11-7ed4-491d-bea7-726f150d747b}, !- Thermal Zone Name
  Yes,                                    !- Part of Total Floor Area
  ,                                       !- Design Specification Outdoor Air Object Name
  ,                                       !- Building Unit Name
  Autocalculate;                          !- Volume {m3}

OS:Surface,
  {ec5ced3e-87c0-415a-9ceb-d3bad643a050}, !- Handle
  Core_bot_ZN_5_Wall_South-PPAutoCreateOther, !- Name
  Wall,                                   !- Surface Type
  ,                                       !- Construction Name
  {2ff425f9-c1f4-46e4-a7b6-d29a1f6709fc}, !- Space Name
  Surface,                                !- Outside Boundary Condition
  {268a7e22-63ae-4eb3-86fe-ead5ac1ec3cb}, !- Outside Boundary Condition Object
  NoSun,                                  !- Sun Exposure
  NoWind,                                 !- Wind Exposure
  0,                                      !- View Factor to Ground
  ,                                       !- Number of Vertices
  68.534, 4.5732, 2.744,                  !- X,Y,Z Vertex 1 {m}
  68.534, 4.5732, 0,                      !- X,Y,Z Vertex 2 {m}
  5.4876, 4.5732, 0,                      !- X,Y,Z Vertex 3 {m}
  5.4876, 4.5732, 2.744;                  !- X,Y,Z Vertex 4 {m}

OS:Surface,
  {3d4da348-f579-48a3-a1d9-b5c14b19b5ed}, !- Handle
  DataCenter_mid_ZN_6_Wall_North-PPAutoCreateOther, !- Name
  Wall,                                   !- Surface Type
  ,                                       !- Construction Name
  {acc296c2-5131-4947-b8bf-97711c02ad52}, !- Space Name
  Surface,                                !- Outside Boundary Condition
  {22e35ab3-431d-400d-baa8-2de55185eb9d}, !- Outside Boundary Condition Object
  NoSun,                                  !- Sun Exposure
  NoWind,                                 !- Wind Exposure
  0,                                      !- View Factor to Ground
  ,                                       !- Number of Vertices
  4.5732, 0, 2.744,                       !- X,Y,Z Vertex 1 {m}
  4.5732, 0, 0,                           !- X,Y,Z Vertex 2 {m}
  5.4876, 0, 0,                           !- X,Y,Z Vertex 3 {m}
  5.4876, 0, 2.744;                       !- X,Y,Z Vertex 4 {m}

OS:Surface,
  {7e4d234e-0c7f-491f-aa72-623b5d531074}, !- Handle
  Perimeter_top_ZN_2_Floor,               !- Name
  Floor,                                  !- Surface Type
  {033de29d-b4aa-42d0-8ac4-d33a9c0dcbfc}, !- Construction Name
  {fef7f608-2812-417a-a2ec-fcc3d22db84e}, !- Space Name
  Adiabatic,                              !- Outside Boundary Condition
  ,                                       !- Outside Boundary Condition Object
  NoSun,                                  !- Sun Exposure
  NoWind,                                 !- Wind Exposure
  ,                                       !- View Factor to Ground
  ,                                       !- Number of Vertices
  4.5732, 48.7381, 0,                     !- X,Y,Z Vertex 1 {m}
  4.5732, 0, 0,                           !- X,Y,Z Vertex 2 {m}
  0, 4.5732, 0,                           !- X,Y,Z Vertex 3 {m}
  0, 44.165, 0;                           !- X,Y,Z Vertex 4 {m}

OS:Connection,
  {f1438db1-853f-48df-8564-c718f1b533e1}, !- Handle
  ,                                       !- Source Object
  11,                                     !- Outlet Port
  ,                                       !- Target Object
  2;                                      !- Inlet Port

OS:Space,
  {fef7f608-2812-417a-a2ec-fcc3d22db84e}, !- Handle
  Perimeter_top_ZN_2,                     !- Name
  {cbc1800d-3058-4bca-9be8-d37e6a76ff55}, !- Space Type Name
  ,                                       !- Default Construction Set Name
  ,                                       !- Default Schedule Set Name
  -0,                                     !- Direction of Relative North {deg}
  68.534,                                 !- X Origin {m}
  0,                                      !- Y Origin {m}
  43.5952,                                !- Z Origin {m}
  {f4d26ab6-6069-4f95-a4bb-2505ee54b65c}, !- Building Story Name
  {5c5bdc8b-16d0-4232-8ed5-4d8970f9e580}, !- Thermal Zone Name
  Yes,                                    !- Part of Total Floor Area
  ,                                       !- Design Specification Outdoor Air Object Name
  ,                                       !- Building Unit Name
  Autocalculate;                          !- Volume {m3}

OS:Surface,
  {a6970fb2-9438-492c-b381-0e01c4325c0f}, !- Handle
  Perimeter_bot_ZN_3_Wall_North,          !- Name
  Wall,                                   !- Surface Type
  ,                                       !- Construction Name
  {d59c9de6-0b6a-4003-83b3-9abbb0fc11e6}, !- Space Name
  Outdoors,                               !- Outside Boundary Condition
  ,                                       !- Outside Boundary Condition Object
  SunExposed,                             !- Sun Exposure
  WindExposed,                            !- Wind Exposure
  ,                                       !- View Factor to Ground
  ,                                       !- Number of Vertices
  73.1072, 4.5731, 2.744,                 !- X,Y,Z Vertex 1 {m}
  73.1072, 4.5731, 0,                     !- X,Y,Z Vertex 2 {m}
  0, 4.5731, 0,                           !- X,Y,Z Vertex 3 {m}
  0, 4.5731, 2.744;                       !- X,Y,Z Vertex 4 {m}

OS:Surface,
  {4dd079cc-3c4c-49b7-8eeb-039223867855}, !- Handle
  Perimeter_top_ZN_1_Wall_South,          !- Name
  Wall,                                   !- Surface Type
  ,                                       !- Construction Name
  {6f883ada-330c-4aa9-aba9-5812022ed701}, !- Space Name
  Outdoors,                               !- Outside Boundary Condition
  ,                                       !- Outside Boundary Condition Object
  SunExposed,                             !- Sun Exposure
  WindExposed,                            !- Wind Exposure
  ,                                       !- View Factor to Ground
  ,                                       !- Number of Vertices
  0, 0, 2.744,                            !- X,Y,Z Vertex 1 {m}
  0, 0, 0,                                !- X,Y,Z Vertex 2 {m}
  73.1072, 0, 0,                          !- X,Y,Z Vertex 3 {m}
  73.1072, 0, 2.744;                      !- X,Y,Z Vertex 4 {m}

OS:Connection,
  {7d324164-b702-48e8-895a-1af87cb5d98d}, !- Handle
  ,                                       !- Source Object
  11,                                     !- Outlet Port
  ,                                       !- Target Object
  2;                                      !- Inlet Port

OS:Space,
  {6f883ada-330c-4aa9-aba9-5812022ed701}, !- Handle
  Perimeter_top_ZN_1,                     !- Name
  {cbc1800d-3058-4bca-9be8-d37e6a76ff55}, !- Space Type Name
  ,                                       !- Default Construction Set Name
  ,                                       !- Default Schedule Set Name
  -0,                                     !- Direction of Relative North {deg}
  -7.21911419532262e-16,                  !- X Origin {m}
  0,                                      !- Y Origin {m}
  43.5952,                                !- Z Origin {m}
  {f4d26ab6-6069-4f95-a4bb-2505ee54b65c}, !- Building Story Name
  {3dcccbc4-1f4a-4702-bcdd-f394382583c8}, !- Thermal Zone Name
  Yes,                                    !- Part of Total Floor Area
  ,                                       !- Design Specification Outdoor Air Object Name
  ,                                       !- Building Unit Name
  Autocalculate;                          !- Volume {m3}

OS:Surface,
  {37aa0144-c104-405c-94fd-41890879a3f4}, !- Handle
  Core_mid_ZN_5_Wall_North,               !- Name
  Wall,                                   !- Surface Type
  ,                                       !- Construction Name
  {c9532ad7-da0a-45f9-96ed-ea62ab17db64}, !- Space Name
  Surface,                                !- Outside Boundary Condition
  {40c6b486-749c-4d5e-923b-073e53a6111d}, !- Outside Boundary Condition Object
  NoSun,                                  !- Sun Exposure
  NoWind,                                 !- Wind Exposure
  ,                                       !- View Factor to Ground
  ,                                       !- Number of Vertices
  63.0464, 39.5918, 2.744,                !- X,Y,Z Vertex 1 {m}
  63.0464, 39.5918, 0,                    !- X,Y,Z Vertex 2 {m}
  0, 39.5918, 0,                          !- X,Y,Z Vertex 3 {m}
  0, 39.5918, 2.744;                      !- X,Y,Z Vertex 4 {m}

OS:Surface,
  {f5f24163-243c-4464-9eda-91f98c0e1751}, !- Handle
  Perimeter_mid_ZN_4_Floor,               !- Name
  Floor,                                  !- Surface Type
  {033de29d-b4aa-42d0-8ac4-d33a9c0dcbfc}, !- Construction Name
  {fa6dd353-dcdd-40da-857d-4470740aa0d0}, !- Space Name
  Adiabatic,                              !- Outside Boundary Condition
  ,                                       !- Outside Boundary Condition Object
  NoSun,                                  !- Sun Exposure
  NoWind,                                 !- Wind Exposure
  ,                                       !- View Factor to Ground
  ,                                       !- Number of Vertices
  0, 48.7381, 0,                          !- X,Y,Z Vertex 1 {m}
  4.5732, 44.165, 0,                      !- X,Y,Z Vertex 2 {m}
  4.5732, 4.5732, 0,                      !- X,Y,Z Vertex 3 {m}
  0, 0, 0;                                !- X,Y,Z Vertex 4 {m}

OS:Connection,
  {76926763-67c0-4353-a559-bf83397724a0}, !- Handle
  ,                                       !- Source Object
  11,                                     !- Outlet Port
  ,                                       !- Target Object
  2;                                      !- Inlet Port

OS:Space,
  {fa6dd353-dcdd-40da-857d-4470740aa0d0}, !- Handle
  Perimeter_mid_ZN_4,                     !- Name
  {cbc1800d-3058-4bca-9be8-d37e6a76ff55}, !- Space Type Name
  ,                                       !- Default Construction Set Name
  ,                                       !- Default Schedule Set Name
  -0,                                     !- Direction of Relative North {deg}
  0,                                      !- X Origin {m}
  0,                                      !- Y Origin {m}
  19.816,                                 !- Z Origin {m}
  {90e8f18c-4e90-4136-9df3-52f333e3fb0e}, !- Building Story Name
  {b93c7e61-ca78-4a0d-8a48-0b4d57c5d5f4}, !- Thermal Zone Name
  Yes,                                    !- Part of Total Floor Area
  ,                                       !- Design Specification Outdoor Air Object Name
  ,                                       !- Building Unit Name
  Autocalculate;                          !- Volume {m3}

OS:Surface,
  {7231acf3-7b31-48ea-bb10-f50f61b62394}, !- Handle
  TopFloor_Plenum_Wall_North,             !- Name
  Wall,                                   !- Surface Type
  ,                                       !- Construction Name
  {d90bdd43-239b-4cf7-ae27-6c4e6b492a91}, !- Space Name
  Outdoors,                               !- Outside Boundary Condition
  ,                                       !- Outside Boundary Condition Object
  SunExposed,                             !- Sun Exposure
  WindExposed,                            !- Wind Exposure
  ,                                       !- View Factor to Ground
  ,                                       !- Number of Vertices
  0, 0, 1.2192,                           !- X,Y,Z Vertex 1 {m}
  0, 0, 0,                                !- X,Y,Z Vertex 2 {m}
  73.1072, 0, 0,                          !- X,Y,Z Vertex 3 {m}
  73.1072, 0, 1.2192;                     !- X,Y,Z Vertex 4 {m}

OS:Connection,
  {e422ee53-a159-424b-bad0-e6e749d45451}, !- Handle
  ,                                       !- Source Object
  11,                                     !- Outlet Port
  ,                                       !- Target Object
  2;                                      !- Inlet Port

OS:Space,
  {d90bdd43-239b-4cf7-ae27-6c4e6b492a91}, !- Handle
  TopFloor_Plenum,                        !- Name
  {89f0d366-eba1-4d30-847b-e0e91684e056}, !- Space Type Name
  ,                                       !- Default Construction Set Name
  ,                                       !- Default Schedule Set Name
  -0,                                     !- Direction of Relative North {deg}
  -7.21911419532262e-16,                  !- X Origin {m}
  0,                                      !- Y Origin {m}
  46.3392,                                !- Z Origin {m}
  {f4d26ab6-6069-4f95-a4bb-2505ee54b65c}, !- Building Story Name
  {7e97b668-1452-4b53-b016-fd86c708fa91}, !- Thermal Zone Name
  No,                                     !- Part of Total Floor Area
  ,                                       !- Design Specification Outdoor Air Object Name
  ,                                       !- Building Unit Name
  Autocalculate;                          !- Volume {m3}

OS:Surface,
  {72a13a95-e4f4-4099-bbc4-a7b9a3d27dfa}, !- Handle
  Core_top_ZN_5_Wall_North,               !- Name
  Wall,                                   !- Surface Type
  ,                                       !- Construction Name
  {c37fd6ec-d4bc-468a-8c95-3ae276d0b5cb}, !- Space Name
  Surface,                                !- Outside Boundary Condition
  {8cee6b0e-b327-4162-99af-bdd3fad8a288}, !- Outside Boundary Condition Object
  NoSun,                                  !- Sun Exposure
  NoWind,                                 !- Wind Exposure
  ,                                       !- View Factor to Ground
  ,                                       !- Number of Vertices
  63.0464, 39.5918, 2.744,                !- X,Y,Z Vertex 1 {m}
  63.0464, 39.5918, 0,                    !- X,Y,Z Vertex 2 {m}
  0, 39.5918, 0,                          !- X,Y,Z Vertex 3 {m}
  0, 39.5918, 2.744;                      !- X,Y,Z Vertex 4 {m}

OS:Surface,
  {6b8053ca-b04c-40e5-8ba4-10cc9fc55980}, !- Handle
  Core_top_ZN_5_Wall_South-PPAutoCreateOther, !- Name
  Wall,                                   !- Surface Type
  ,                                       !- Construction Name
  {6f883ada-330c-4aa9-aba9-5812022ed701}, !- Space Name
  Surface,                                !- Outside Boundary Condition
  {ea4d5465-e417-4de3-87be-a97e95712b29}, !- Outside Boundary Condition Object
  NoSun,                                  !- Sun Exposure
  NoWind,                                 !- Wind Exposure
  0,                                      !- View Factor to Ground
  ,                                       !- Number of Vertices
  68.534, 4.5732, 2.744,                  !- X,Y,Z Vertex 1 {m}
  68.534, 4.5732, 0,                      !- X,Y,Z Vertex 2 {m}
  5.4876, 4.5732, 0,                      !- X,Y,Z Vertex 3 {m}
  5.4876, 4.5732, 2.744;                  !- X,Y,Z Vertex 4 {m}

OS:Surface,
  {b0087f00-3fb0-4aed-8f26-2feb89aefd87}, !- Handle
  GroundFloor_Plenum_Wall_East,           !- Name
  Wall,                                   !- Surface Type
  ,                                       !- Construction Name
  {b30407eb-ffd6-40ad-a549-5d1cfee1d345}, !- Space Name
  Outdoors,                               !- Outside Boundary Condition
  ,                                       !- Outside Boundary Condition Object
  SunExposed,                             !- Sun Exposure
  WindExposed,                            !- Wind Exposure
  ,                                       !- View Factor to Ground
  ,                                       !- Number of Vertices
  73.1072, 0, 1.2192,                     !- X,Y,Z Vertex 1 {m}
  73.1072, 0, 0,                          !- X,Y,Z Vertex 2 {m}
  73.1072, 48.7381, 0,                    !- X,Y,Z Vertex 3 {m}
  73.1072, 48.7381, 1.2192;               !- X,Y,Z Vertex 4 {m}

OS:Connection,
  {13570741-0dfe-441d-a7e6-81ef69c8431a}, !- Handle
  ,                                       !- Source Object
  11,                                     !- Outlet Port
  ,                                       !- Target Object
  2;                                      !- Inlet Port

OS:Space,
  {b30407eb-ffd6-40ad-a549-5d1cfee1d345}, !- Handle
  GroundFloor_Plenum,                     !- Name
  {89f0d366-eba1-4d30-847b-e0e91684e056}, !- Space Type Name
  ,                                       !- Default Construction Set Name
  ,                                       !- Default Schedule Set Name
  -0,                                     !- Direction of Relative North {deg}
  0,                                      !- X Origin {m}
  0,                                      !- Y Origin {m}
  2.744,                                  !- Z Origin {m}
  {1bf14578-5317-4bb7-bb78-67bfc4cef2af}, !- Building Story Name
  {2880755b-aa34-4977-908f-1cd48bc96905}, !- Thermal Zone Name
  No,                                     !- Part of Total Floor Area
  ,                                       !- Design Specification Outdoor Air Object Name
  ,                                       !- Building Unit Name
  Autocalculate;                          !- Volume {m3}

OS:Surface,
  {3270cf22-d4c9-4e55-a8ea-59c5909ad282}, !- Handle
  DataCenter_mid_ZN_6_ceiling,            !- Name
  RoofCeiling,                            !- Surface Type
  ,                                       !- Construction Name
  {2c6ae4f5-d65e-4636-8802-7d13d7260722}, !- Space Name
  Surface,                                !- Outside Boundary Condition
  {e838050d-fc73-424e-959f-a53b31429564}, !- Outside Boundary Condition Object
  NoSun,                                  !- Sun Exposure
  NoWind,                                 !- Wind Exposure
  0,                                      !- View Factor to Ground
  ,                                       !- Number of Vertices
  0.9144, 0, 2.744,                       !- X,Y,Z Vertex 1 {m}
  0.9144, 39.5918, 2.744,                 !- X,Y,Z Vertex 2 {m}
  0, 39.5918, 2.744,                      !- X,Y,Z Vertex 3 {m}
  0, 0, 2.744;                            !- X,Y,Z Vertex 4 {m}

OS:Surface,
  {e838050d-fc73-424e-959f-a53b31429564}, !- Handle
  DataCenter_mid_ZN_6_ceiling Reversed,   !- Name
  Floor,                                  !- Surface Type
  ,                                       !- Construction Name
  {d6fae17a-2423-4ae7-b189-02f65601f395}, !- Space Name
  Surface,                                !- Outside Boundary Condition
  {3270cf22-d4c9-4e55-a8ea-59c5909ad282}, !- Outside Boundary Condition Object
  NoSun,                                  !- Sun Exposure
  NoWind,                                 !- Wind Exposure
  ,                                       !- View Factor to Ground
  ,                                       !- Number of Vertices
  5.4876, 44.165, 0,                      !- X,Y,Z Vertex 1 {m}
  5.4876, 4.5732, 0,                      !- X,Y,Z Vertex 2 {m}
  4.5732, 4.5732, 0,                      !- X,Y,Z Vertex 3 {m}
  4.5732, 44.165, 0;                      !- X,Y,Z Vertex 4 {m}

OS:Surface,
  {268a7e22-63ae-4eb3-86fe-ead5ac1ec3cb}, !- Handle
  Core_bot_ZN_5_Wall_South,               !- Name
  Wall,                                   !- Surface Type
  ,                                       !- Construction Name
  {252d5491-4adf-40c7-b2c2-5f3c366963cc}, !- Space Name
  Surface,                                !- Outside Boundary Condition
  {ec5ced3e-87c0-415a-9ceb-d3bad643a050}, !- Outside Boundary Condition Object
  NoSun,                                  !- Sun Exposure
  NoWind,                                 !- Wind Exposure
  0,                                      !- View Factor to Ground
  ,                                       !- Number of Vertices
  0, 0, 2.744,                            !- X,Y,Z Vertex 1 {m}
  0, 0, 0,                                !- X,Y,Z Vertex 2 {m}
  63.0464, 0, 0,                          !- X,Y,Z Vertex 3 {m}
  63.0464, 0, 2.744;                      !- X,Y,Z Vertex 4 {m}

OS:Surface,
  {7e083f99-2b31-4363-9b2a-f6d084494fb0}, !- Handle
  DataCenter_top_ZN_6_Wall_West-PPAutoCreateOther, !- Name
  Wall,                                   !- Surface Type
  ,                                       !- Construction Name
  {6cd1cb1e-ec74-478a-b671-0892d887d9ed}, !- Space Name
  Surface,                                !- Outside Boundary Condition
  {ed92cf24-f8ab-4211-92b7-601209dfbe32}, !- Outside Boundary Condition Object
  NoSun,                                  !- Sun Exposure
  NoWind,                                 !- Wind Exposure
  0,                                      !- View Factor to Ground
  ,                                       !- Number of Vertices
  4.5732, 4.5732, 2.744,                  !- X,Y,Z Vertex 1 {m}
  4.5732, 4.5732, 0,                      !- X,Y,Z Vertex 2 {m}
  4.5732, 44.165, 0,                      !- X,Y,Z Vertex 3 {m}
  4.5732, 44.165, 2.744;                  !- X,Y,Z Vertex 4 {m}

OS:Connection,
  {f99e5a14-73ce-4e5a-8c00-811ae04bffdf}, !- Handle
  ,                                       !- Source Object
  11,                                     !- Outlet Port
  ,                                       !- Target Object
  2;                                      !- Inlet Port

OS:Space,
  {6cd1cb1e-ec74-478a-b671-0892d887d9ed}, !- Handle
  Perimeter_top_ZN_4,                     !- Name
  {cbc1800d-3058-4bca-9be8-d37e6a76ff55}, !- Space Type Name
  ,                                       !- Default Construction Set Name
  ,                                       !- Default Schedule Set Name
  -0,                                     !- Direction of Relative North {deg}
  -7.21911419532262e-16,                  !- X Origin {m}
  0,                                      !- Y Origin {m}
  43.5952,                                !- Z Origin {m}
  {f4d26ab6-6069-4f95-a4bb-2505ee54b65c}, !- Building Story Name
  {7afae3d2-9eb5-4c3f-91f0-5aa30e314353}, !- Thermal Zone Name
  Yes,                                    !- Part of Total Floor Area
  ,                                       !- Design Specification Outdoor Air Object Name
  ,                                       !- Building Unit Name
  Autocalculate;                          !- Volume {m3}

OS:Surface,
  {22589ad2-e202-40f0-8ea4-3a1465dc671e}, !- Handle
  Perimeter_top_ZN_3_Wall_North,          !- Name
  Wall,                                   !- Surface Type
  ,                                       !- Construction Name
  {bf3e28c0-5c36-4ba7-8f6b-40c5c095b5f0}, !- Space Name
  Outdoors,                               !- Outside Boundary Condition
  ,                                       !- Outside Boundary Condition Object
  SunExposed,                             !- Sun Exposure
  WindExposed,                            !- Wind Exposure
  ,                                       !- View Factor to Ground
  ,                                       !- Number of Vertices
  73.1072, 4.5731, 2.744,                 !- X,Y,Z Vertex 1 {m}
  73.1072, 4.5731, 0,                     !- X,Y,Z Vertex 2 {m}
  0, 4.5731, 0,                           !- X,Y,Z Vertex 3 {m}
  0, 4.5731, 2.744;                       !- X,Y,Z Vertex 4 {m}

OS:Surface,
  {a6919b0b-58df-46c6-8fe2-a963546c6f00}, !- Handle
  Perimeter_bot_ZN_1_Wall_South,          !- Name
  Wall,                                   !- Surface Type
  ,                                       !- Construction Name
  {2ff425f9-c1f4-46e4-a7b6-d29a1f6709fc}, !- Space Name
  Outdoors,                               !- Outside Boundary Condition
  ,                                       !- Outside Boundary Condition Object
  SunExposed,                             !- Sun Exposure
  WindExposed,                            !- Wind Exposure
  ,                                       !- View Factor to Ground
  ,                                       !- Number of Vertices
  0, 0, 2.744,                            !- X,Y,Z Vertex 1 {m}
  0, 0, 0,                                !- X,Y,Z Vertex 2 {m}
  73.1072, 0, 0,                          !- X,Y,Z Vertex 3 {m}
  73.1072, 0, 2.744;                      !- X,Y,Z Vertex 4 {m}

OS:Surface,
  {99fa349e-a325-406a-8cf7-4e0a1c73bbd4}, !- Handle
  Building_Roof,                          !- Name
  RoofCeiling,                            !- Surface Type
  ,                                       !- Construction Name
  {d90bdd43-239b-4cf7-ae27-6c4e6b492a91}, !- Space Name
  Outdoors,                               !- Outside Boundary Condition
  ,                                       !- Outside Boundary Condition Object
  SunExposed,                             !- Sun Exposure
  WindExposed,                            !- Wind Exposure
  ,                                       !- View Factor to Ground
  ,                                       !- Number of Vertices
  73.1072, 0, 1.2192,                     !- X,Y,Z Vertex 1 {m}
  73.1072, 48.7381, 1.2192,               !- X,Y,Z Vertex 2 {m}
  0, 48.7381, 1.2192,                     !- X,Y,Z Vertex 3 {m}
  0, 0, 1.2192;                           !- X,Y,Z Vertex 4 {m}

OS:Surface,
  {b1dd3025-42eb-41bc-bddf-fec82b89cafe}, !- Handle
  DataCenter_basement_ZN_6_Ceiling-Perimeter_bot_ZN_3, !- Name
  RoofCeiling,                            !- Surface Type
  ,                                       !- Construction Name
  {c7138cc2-589b-4e88-aa9b-6561b087ce28}, !- Space Name
  Surface,                                !- Outside Boundary Condition
  {32149b41-adb7-4b41-ad95-c08825e09295}, !- Outside Boundary Condition Object
  NoSun,                                  !- Sun Exposure
  NoWind,                                 !- Wind Exposure
  0,                                      !- View Factor to Ground
  ,                                       !- Number of Vertices
  16.0782, 44.165, 2.439,                 !- X,Y,Z Vertex 1 {m}
  16.0782, 48.7381, 2.439,                !- X,Y,Z Vertex 2 {m}
  0, 48.7381, 2.439,                      !- X,Y,Z Vertex 3 {m}
  4.5732, 44.165, 2.439;                  !- X,Y,Z Vertex 4 {m}

OS:Connection,
  {f02bb41f-83af-40d9-963d-acaea1cef39e}, !- Handle
  ,                                       !- Source Object
  11,                                     !- Outlet Port
  ,                                       !- Target Object
  2;                                      !- Inlet Port

OS:Space,
  {c7138cc2-589b-4e88-aa9b-6561b087ce28}, !- Handle
  DataCenter_basement_ZN_6,               !- Name
  {cbc1800d-3058-4bca-9be8-d37e6a76ff55}, !- Space Type Name
  ,                                       !- Default Construction Set Name
  ,                                       !- Default Schedule Set Name
  -0,                                     !- Direction of Relative North {deg}
  0,                                      !- X Origin {m}
  0,                                      !- Y Origin {m}
  -2.439,                                 !- Z Origin {m}
  {34fed859-ffd9-4b75-89d6-fc353a47f793}, !- Building Story Name
  {0c9c37ca-5128-473c-ac03-3d71a0ccf6f8}, !- Thermal Zone Name
  ,                                       !- Part of Total Floor Area
  ,                                       !- Design Specification Outdoor Air Object Name
  ,                                       !- Building Unit Name
  Autocalculate;                          !- Volume {m3}

OS:Surface,
  {31b80020-f257-4c20-a67a-014c08a7b555}, !- Handle
  Perimeter_mid_ZN_2_Wall_North,          !- Name
  Wall,                                   !- Surface Type
  ,                                       !- Construction Name
  {7e340c82-5b29-41c5-9ccd-9a28338e4ae1}, !- Space Name
  Surface,                                !- Outside Boundary Condition
  {7d128996-bb86-43c1-9e95-79c15bdeb256}, !- Outside Boundary Condition Object
  NoSun,                                  !- Sun Exposure
  NoWind,                                 !- Wind Exposure
  ,                                       !- View Factor to Ground
  ,                                       !- Number of Vertices
  4.5732, 48.7381, 2.744,                 !- X,Y,Z Vertex 1 {m}
  4.5732, 48.7381, 0,                     !- X,Y,Z Vertex 2 {m}
  0, 44.165, 0,                           !- X,Y,Z Vertex 3 {m}
  0, 44.165, 2.744;                       !- X,Y,Z Vertex 4 {m}

OS:Surface,
  {d0a59f37-e292-440f-8ae6-2a115b14f8a0}, !- Handle
  Core_bot_ZN_5_Wall_West,                !- Name
  Wall,                                   !- Surface Type
  ,                                       !- Construction Name
  {252d5491-4adf-40c7-b2c2-5f3c366963cc}, !- Space Name
  Surface,                                !- Outside Boundary Condition
  {1c745e8a-b021-4943-9de9-ab769a4e89fa}, !- Outside Boundary Condition Object
  NoSun,                                  !- Sun Exposure
  NoWind,                                 !- Wind Exposure
  0,                                      !- View Factor to Ground
  ,                                       !- Number of Vertices
  0, 39.5918, 2.744,                      !- X,Y,Z Vertex 1 {m}
  0, 39.5918, 0,                          !- X,Y,Z Vertex 2 {m}
  0, 0, 0,                                !- X,Y,Z Vertex 3 {m}
  0, 0, 2.744;                            !- X,Y,Z Vertex 4 {m}

OS:Surface,
  {b0fa1412-f530-4105-9167-603b3bfe9e52}, !- Handle
  Perimeter_bot_ZN_1_Floor-PPAutoCreateOther, !- Name
  RoofCeiling,                            !- Surface Type
  ,                                       !- Construction Name
  {5eccad29-dadd-43c0-a26c-31e00e7702be}, !- Space Name
  Surface,                                !- Outside Boundary Condition
  {3aea0e62-e36b-4705-b26b-131867a7071a}, !- Outside Boundary Condition Object
  NoSun,                                  !- Sun Exposure
  NoWind,                                 !- Wind Exposure
  0,                                      !- View Factor to Ground
  ,                                       !- Number of Vertices
  57.0278, 0, 2.439,                      !- X,Y,Z Vertex 1 {m}
  52.4546, 4.5732, 2.439,                 !- X,Y,Z Vertex 2 {m}
  0, 4.5732, 2.439,                       !- X,Y,Z Vertex 3 {m}
  0, 0, 2.439;                            !- X,Y,Z Vertex 4 {m}

OS:Surface,
  {6df794e9-3c6a-4697-83e2-2f096051ecf5}, !- Handle
  Basement_Floor,                         !- Name
  Floor,                                  !- Surface Type
  {61bba870-7ec1-4b50-9bcb-90196764589c}, !- Construction Name
  {5eccad29-dadd-43c0-a26c-31e00e7702be}, !- Space Name
  Foundation,                             !- Outside Boundary Condition
  {70459b4e-ebec-4329-8d4b-4fe36040122f}, !- Outside Boundary Condition Object
  NoSun,                                  !- Sun Exposure
  NoWind,                                 !- Wind Exposure
  0,                                      !- View Factor to Ground
  ,                                       !- Number of Vertices
  57.0278, 48.7381, 0,                    !- X,Y,Z Vertex 1 {m}
  57.0278, 0, 0,                          !- X,Y,Z Vertex 2 {m}
  0, 0, 0,                                !- X,Y,Z Vertex 3 {m}
  0, 48.7381, 0;                          !- X,Y,Z Vertex 4 {m}

OS:Surface,
  {385ea05a-ccee-44ea-89e0-24075e0c0427}, !- Handle
  DataCenter_basement_ZN_6-Perimeter_bot_ZN_1-PPAutoCreateOther, !- Name
  Floor,                                  !- Surface Type
  ,                                       !- Construction Name
  {2ff425f9-c1f4-46e4-a7b6-d29a1f6709fc}, !- Space Name
  Surface,                                !- Outside Boundary Condition
  {57a08851-5347-4ac4-ae3f-e27199583b27}, !- Outside Boundary Condition Object
  NoSun,                                  !- Sun Exposure
  NoWind,                                 !- Wind Exposure
  0,                                      !- View Factor to Ground
  ,                                       !- Number of Vertices
  16.0782, 4.5732, 0,                     !- X,Y,Z Vertex 1 {m}
  16.0782, 0, 0,                          !- X,Y,Z Vertex 2 {m}
  0, 0, 0,                                !- X,Y,Z Vertex 3 {m}
  4.5732, 4.5732, 0;                      !- X,Y,Z Vertex 4 {m}

OS:Surface,
  {35256534-7dcb-487c-8754-2698ab3fb091}, !- Handle
  Core_bot_ZN_5_Wall_North-PPAutoCreateOther, !- Name
  Wall,                                   !- Surface Type
  ,                                       !- Construction Name
  {d59c9de6-0b6a-4003-83b3-9abbb0fc11e6}, !- Space Name
  Surface,                                !- Outside Boundary Condition
  {4f514d6b-5f3a-4773-a294-0e317f993fc9}, !- Outside Boundary Condition Object
  NoSun,                                  !- Sun Exposure
  NoWind,                                 !- Wind Exposure
  ,                                       !- View Factor to Ground
  ,                                       !- Number of Vertices
  5.4876, 0, 2.744,                       !- X,Y,Z Vertex 1 {m}
  5.4876, 0, 0,                           !- X,Y,Z Vertex 2 {m}
  68.534, 0, 0,                           !- X,Y,Z Vertex 3 {m}
  68.534, 0, 2.744;                       !- X,Y,Z Vertex 4 {m}

OS:Surface,
  {e657e933-2e28-4a34-8851-c3e8ba75a417}, !- Handle
  DataCenter_mid_ZN_6_Wall_South,         !- Name
  Wall,                                   !- Surface Type
  ,                                       !- Construction Name
  {2c6ae4f5-d65e-4636-8802-7d13d7260722}, !- Space Name
  Surface,                                !- Outside Boundary Condition
  {602b1d84-44b4-43f4-800e-5a114c124ad1}, !- Outside Boundary Condition Object
  NoSun,                                  !- Sun Exposure
  NoWind,                                 !- Wind Exposure
  0,                                      !- View Factor to Ground
  ,                                       !- Number of Vertices
  0, 0, 2.744,                            !- X,Y,Z Vertex 1 {m}
  0, 0, 0,                                !- X,Y,Z Vertex 2 {m}
  0.9144, 0, 0,                           !- X,Y,Z Vertex 3 {m}
  0.9144, 0, 2.744;                       !- X,Y,Z Vertex 4 {m}

OS:Surface,
  {80e41be6-5e15-4045-aa9d-879ab2ec874d}, !- Handle
  Perimeter_bot_ZN_2_Wall_North,          !- Name
  Wall,                                   !- Surface Type
  ,                                       !- Construction Name
  {fa1660de-671b-44b7-b087-bcff3e03cad4}, !- Space Name
  Surface,                                !- Outside Boundary Condition
  {f4f193f2-ae84-4086-8993-59fec58adcc9}, !- Outside Boundary Condition Object
  NoSun,                                  !- Sun Exposure
  NoWind,                                 !- Wind Exposure
  ,                                       !- View Factor to Ground
  ,                                       !- Number of Vertices
  4.5732, 48.7381, 2.744,                 !- X,Y,Z Vertex 1 {m}
  4.5732, 48.7381, 0,                     !- X,Y,Z Vertex 2 {m}
  0, 44.165, 0,                           !- X,Y,Z Vertex 3 {m}
  0, 44.165, 2.744;                       !- X,Y,Z Vertex 4 {m}

OS:Connection,
  {2d88ca0e-656f-4869-98cb-4a906ba58d1b}, !- Handle
  ,                                       !- Source Object
  11,                                     !- Outlet Port
  ,                                       !- Target Object
  2;                                      !- Inlet Port

OS:Space,
  {fa1660de-671b-44b7-b087-bcff3e03cad4}, !- Handle
  Perimeter_bot_ZN_2,                     !- Name
  {cbc1800d-3058-4bca-9be8-d37e6a76ff55}, !- Space Type Name
  ,                                       !- Default Construction Set Name
  ,                                       !- Default Schedule Set Name
  -0,                                     !- Direction of Relative North {deg}
  68.534,                                 !- X Origin {m}
  0,                                      !- Y Origin {m}
  0,                                      !- Z Origin {m}
  {1bf14578-5317-4bb7-bb78-67bfc4cef2af}, !- Building Story Name
  {39afde36-f595-4f6c-8264-1cdfdc81ea83}, !- Thermal Zone Name
  Yes,                                    !- Part of Total Floor Area
  ,                                       !- Design Specification Outdoor Air Object Name
  ,                                       !- Building Unit Name
  Autocalculate;                          !- Volume {m3}

OS:Surface,
  {17c5ab76-a5f2-4433-b414-301e76e8929c}, !- Handle
  Perimeter_top_ZN_2_Wall_North-PPAutoCreateOther, !- Name
  Wall,                                   !- Surface Type
  ,                                       !- Construction Name
  {bf3e28c0-5c36-4ba7-8f6b-40c5c095b5f0}, !- Space Name
  Surface,                                !- Outside Boundary Condition
  {14f33320-6d6a-4312-94a9-694259fd4aa8}, !- Outside Boundary Condition Object
  NoSun,                                  !- Sun Exposure
  NoWind,                                 !- Wind Exposure
  ,                                       !- View Factor to Ground
  ,                                       !- Number of Vertices
  68.534, 0, 2.744,                       !- X,Y,Z Vertex 1 {m}
  68.534, 0, 0,                           !- X,Y,Z Vertex 2 {m}
  73.1072, 4.5731, 0,                     !- X,Y,Z Vertex 3 {m}
  73.1072, 4.5731, 2.744;                 !- X,Y,Z Vertex 4 {m}

OS:Surface,
  {fc24aad0-a31b-4d7e-bbaf-fc0154c26282}, !- Handle
  Perimeter_bot_ZN_4_Ceiling,             !- Name
  RoofCeiling,                            !- Surface Type
  ,                                       !- Construction Name
  {e00bf7aa-0083-44aa-b7cd-bd6b6b225b7a}, !- Space Name
  Surface,                                !- Outside Boundary Condition
  {15c00337-961a-40e1-8e4f-b27df8fa3a95}, !- Outside Boundary Condition Object
  NoSun,                                  !- Sun Exposure
  NoWind,                                 !- Wind Exposure
  ,                                       !- View Factor to Ground
  ,                                       !- Number of Vertices
  0, 0, 2.744,                            !- X,Y,Z Vertex 1 {m}
  4.5732, 4.5732, 2.744,                  !- X,Y,Z Vertex 2 {m}
  4.5732, 44.165, 2.744,                  !- X,Y,Z Vertex 3 {m}
  0, 48.7381, 2.744;                      !- X,Y,Z Vertex 4 {m}

OS:Connection,
  {db2aad46-61bf-4d29-b6f3-49e6d1a68cc1}, !- Handle
  ,                                       !- Source Object
  11,                                     !- Outlet Port
  ,                                       !- Target Object
  2;                                      !- Inlet Port

OS:Space,
  {e00bf7aa-0083-44aa-b7cd-bd6b6b225b7a}, !- Handle
  Perimeter_bot_ZN_4,                     !- Name
  {cbc1800d-3058-4bca-9be8-d37e6a76ff55}, !- Space Type Name
  ,                                       !- Default Construction Set Name
  ,                                       !- Default Schedule Set Name
  -0,                                     !- Direction of Relative North {deg}
  0,                                      !- X Origin {m}
  0,                                      !- Y Origin {m}
  0,                                      !- Z Origin {m}
  {1bf14578-5317-4bb7-bb78-67bfc4cef2af}, !- Building Story Name
  {39711dbc-7eae-459f-b700-7915bcfb3842}, !- Thermal Zone Name
  Yes,                                    !- Part of Total Floor Area
  ,                                       !- Design Specification Outdoor Air Object Name
  ,                                       !- Building Unit Name
  Autocalculate;                          !- Volume {m3}

OS:Surface,
  {15c00337-961a-40e1-8e4f-b27df8fa3a95}, !- Handle
  Perimeter_bot_ZN_4_Ceiling Reversed,    !- Name
  Floor,                                  !- Surface Type
  ,                                       !- Construction Name
  {b30407eb-ffd6-40ad-a549-5d1cfee1d345}, !- Space Name
  Surface,                                !- Outside Boundary Condition
  {fc24aad0-a31b-4d7e-bbaf-fc0154c26282}, !- Outside Boundary Condition Object
  NoSun,                                  !- Sun Exposure
  NoWind,                                 !- Wind Exposure
  ,                                       !- View Factor to Ground
  ,                                       !- Number of Vertices
  0, 48.7381, 0,                          !- X,Y,Z Vertex 1 {m}
  4.5732, 44.165, 0,                      !- X,Y,Z Vertex 2 {m}
  4.5732, 4.5732, 0,                      !- X,Y,Z Vertex 3 {m}
  0, 0, 0;                                !- X,Y,Z Vertex 4 {m}

OS:Surface,
  {07bf6fef-804b-41f5-be4e-454ef34836c2}, !- Handle
  Perimeter_mid_ZN_4_Wall_South-PPAutoCreateOther, !- Name
  Wall,                                   !- Surface Type
  ,                                       !- Construction Name
  {fbcda114-4a6f-4d17-ba38-7d71c7b8bbff}, !- Space Name
  Surface,                                !- Outside Boundary Condition
  {01cd8577-649b-4433-97f2-77580c653d33}, !- Outside Boundary Condition Object
  NoSun,                                  !- Sun Exposure
  NoWind,                                 !- Wind Exposure
  ,                                       !- View Factor to Ground
  ,                                       !- Number of Vertices
  4.5732, 4.5732, 2.744,                  !- X,Y,Z Vertex 1 {m}
  4.5732, 4.5732, 0,                      !- X,Y,Z Vertex 2 {m}
  0, 0, 0,                                !- X,Y,Z Vertex 3 {m}
  0, 0, 2.744;                            !- X,Y,Z Vertex 4 {m}

OS:Surface,
  {bc756393-0073-4502-8f6d-e63a633caa70}, !- Handle
  Perimeter_bot_ZN_4_Wall_South,          !- Name
  Wall,                                   !- Surface Type
  ,                                       !- Construction Name
  {e00bf7aa-0083-44aa-b7cd-bd6b6b225b7a}, !- Space Name
  Surface,                                !- Outside Boundary Condition
  {4ac6ea44-6fad-4d22-9242-726039b5b7bb}, !- Outside Boundary Condition Object
  NoSun,                                  !- Sun Exposure
  NoWind,                                 !- Wind Exposure
  ,                                       !- View Factor to Ground
  ,                                       !- Number of Vertices
  0, 0, 2.744,                            !- X,Y,Z Vertex 1 {m}
  0, 0, 0,                                !- X,Y,Z Vertex 2 {m}
  4.5732, 4.5732, 0,                      !- X,Y,Z Vertex 3 {m}
  4.5732, 4.5732, 2.744;                  !- X,Y,Z Vertex 4 {m}

OS:Surface,
  {30c6ef8c-d12f-4a7f-bd36-3ca441910b75}, !- Handle
  TopFloor_Plenum_Wall_West,              !- Name
  Wall,                                   !- Surface Type
  ,                                       !- Construction Name
  {d90bdd43-239b-4cf7-ae27-6c4e6b492a91}, !- Space Name
  Outdoors,                               !- Outside Boundary Condition
  ,                                       !- Outside Boundary Condition Object
  SunExposed,                             !- Sun Exposure
  WindExposed,                            !- Wind Exposure
  ,                                       !- View Factor to Ground
  ,                                       !- Number of Vertices
  0, 48.7381, 1.2192,                     !- X,Y,Z Vertex 1 {m}
  0, 48.7381, 0,                          !- X,Y,Z Vertex 2 {m}
  0, 0, 0,                                !- X,Y,Z Vertex 3 {m}
  0, 0, 1.2192;                           !- X,Y,Z Vertex 4 {m}

OS:Surface,
  {dfc35d03-b0cb-4f19-a1bd-09af3cd6142f}, !- Handle
  DataCenter_basement_ZN_6_Floor,         !- Name
  Floor,                                  !- Surface Type
  {61bba870-7ec1-4b50-9bcb-90196764589c}, !- Construction Name
  {c7138cc2-589b-4e88-aa9b-6561b087ce28}, !- Space Name
  Foundation,                             !- Outside Boundary Condition
  {70459b4e-ebec-4329-8d4b-4fe36040122f}, !- Outside Boundary Condition Object
  NoSun,                                  !- Sun Exposure
  NoWind,                                 !- Wind Exposure
  0,                                      !- View Factor to Ground
  ,                                       !- Number of Vertices
  16.0794, 48.7381, 0,                    !- X,Y,Z Vertex 1 {m}
  16.0794, 0, 0,                          !- X,Y,Z Vertex 2 {m}
  0, 0, 0,                                !- X,Y,Z Vertex 3 {m}
  0, 48.7381, 0;                          !- X,Y,Z Vertex 4 {m}

OS:Surface,
  {1672b55a-25bd-4581-ad38-f3dee5d19303}, !- Handle
  GroundFloor_Plenum_Ceiling,             !- Name
  RoofCeiling,                            !- Surface Type
  {033de29d-b4aa-42d0-8ac4-d33a9c0dcbfc}, !- Construction Name
  {b30407eb-ffd6-40ad-a549-5d1cfee1d345}, !- Space Name
  Adiabatic,                              !- Outside Boundary Condition
  ,                                       !- Outside Boundary Condition Object
  NoSun,                                  !- Sun Exposure
  NoWind,                                 !- Wind Exposure
  ,                                       !- View Factor to Ground
  ,                                       !- Number of Vertices
  73.1072, 0, 1.2192,                     !- X,Y,Z Vertex 1 {m}
  73.1072, 48.7381, 1.2192,               !- X,Y,Z Vertex 2 {m}
  0, 48.7381, 1.2192,                     !- X,Y,Z Vertex 3 {m}
  0, 0, 1.2192;                           !- X,Y,Z Vertex 4 {m}

OS:Surface,
  {58bb2539-a045-44d3-bfe6-0813d89f521a}, !- Handle
  Perimeter_top_ZN_2_Wall_East,           !- Name
  Wall,                                   !- Surface Type
  ,                                       !- Construction Name
  {fef7f608-2812-417a-a2ec-fcc3d22db84e}, !- Space Name
  Outdoors,                               !- Outside Boundary Condition
  ,                                       !- Outside Boundary Condition Object
  SunExposed,                             !- Sun Exposure
  WindExposed,                            !- Wind Exposure
  ,                                       !- View Factor to Ground
  ,                                       !- Number of Vertices
  4.5732, 0, 2.744,                       !- X,Y,Z Vertex 1 {m}
  4.5732, 0, 0,                           !- X,Y,Z Vertex 2 {m}
  4.5732, 48.7381, 0,                     !- X,Y,Z Vertex 3 {m}
  4.5732, 48.7381, 2.744;                 !- X,Y,Z Vertex 4 {m}

OS:Surface,
  {602b1d84-44b4-43f4-800e-5a114c124ad1}, !- Handle
  DataCenter_mid_ZN_6_Wall_South-PPAutoCreateOther, !- Name
  Wall,                                   !- Surface Type
  ,                                       !- Construction Name
  {fbcda114-4a6f-4d17-ba38-7d71c7b8bbff}, !- Space Name
  Surface,                                !- Outside Boundary Condition
  {e657e933-2e28-4a34-8851-c3e8ba75a417}, !- Outside Boundary Condition Object
  NoSun,                                  !- Sun Exposure
  NoWind,                                 !- Wind Exposure
  0,                                      !- View Factor to Ground
  ,                                       !- Number of Vertices
  5.4876, 4.5732, 2.744,                  !- X,Y,Z Vertex 1 {m}
  5.4876, 4.5732, 0,                      !- X,Y,Z Vertex 2 {m}
  4.5732, 4.5732, 0,                      !- X,Y,Z Vertex 3 {m}
  4.5732, 4.5732, 2.744;                  !- X,Y,Z Vertex 4 {m}

OS:Surface,
  {e76036e0-22b6-40c7-bea7-47386fd2f9d6}, !- Handle
  Core_bot_ZN_5_Wall_East,                !- Name
  Wall,                                   !- Surface Type
  ,                                       !- Construction Name
  {252d5491-4adf-40c7-b2c2-5f3c366963cc}, !- Space Name
  Surface,                                !- Outside Boundary Condition
  {3a01545e-79a9-472e-a218-6d489b8687fa}, !- Outside Boundary Condition Object
  NoSun,                                  !- Sun Exposure
  NoWind,                                 !- Wind Exposure
  ,                                       !- View Factor to Ground
  ,                                       !- Number of Vertices
  63.0464, 0, 2.744,                      !- X,Y,Z Vertex 1 {m}
  63.0464, 0, 0,                          !- X,Y,Z Vertex 2 {m}
  63.0464, 39.5918, 0,                    !- X,Y,Z Vertex 3 {m}
  63.0464, 39.5918, 2.744;                !- X,Y,Z Vertex 4 {m}

OS:Surface,
  {850dcceb-5334-45f2-850b-04b1d956bc1d}, !- Handle
  Perimeter_mid_ZN_4_Wall_West,           !- Name
  Wall,                                   !- Surface Type
  ,                                       !- Construction Name
  {fa6dd353-dcdd-40da-857d-4470740aa0d0}, !- Space Name
  Outdoors,                               !- Outside Boundary Condition
  ,                                       !- Outside Boundary Condition Object
  SunExposed,                             !- Sun Exposure
  WindExposed,                            !- Wind Exposure
[...]
  ,                                       !- External File Column Number
  ,                                       !- External File Starting Row Number
  0.5,                                    !- Output Value 1 {BasedOnField A5}
  0.5;                                    !- Output Value 2 {BasedOnField A5}

OS:ModelObjectList,
  {b1ab16c6-cb8a-4a32-92f3-ad013d9ab975}, !- Handle
  Table Lookup 1 Independent Variable List 24, !- Name
  {e7a469df-ee92-46ec-a840-78e074a9c5cb}; !- Model Object 1

OS:Table:Lookup,
  {9021d1a3-b2c7-4a23-b11b-1e940daf21dd}, !- Handle
  sys_1|doas|shr>none|sh>none|ssf>cv|zh>fancoil_4pipe|zc>fancoil_4pipe|srf>none| 3 ERV_LatHeatEff 1, !- Name
  {95b406db-a72b-48a8-a909-fd5f4323639d}, !- Independent Variable List Name
  DivisorOnly,                            !- Normalization Method
  0.5,                                    !- Normalization Divisor
  0,                                      !- Minimum Output {BasedOnField A5}
  10,                                     !- Maximum Output {BasedOnField A5}
  Dimensionless,                          !- Output Unit Type
  ,                                       !- External File Name
  ,                                       !- External File Column Number
  ,                                       !- External File Starting Row Number
  0.5,                                    !- Output Value 1 {BasedOnField A5}
  0.5;                                    !- Output Value 2 {BasedOnField A5}

OS:ModelObjectList,
  {95b406db-a72b-48a8-a909-fd5f4323639d}, !- Handle
  Table Lookup 1 Independent Variable List 25, !- Name
  {70907448-96a0-463f-af7f-7a2642f97a40}; !- Model Object 1

OS:Table:Lookup,
  {46c35f56-7afd-4a5a-876b-a972a6136e21}, !- Handle
  sys_1|doas|shr>none|sh>none|ssf>cv|zh>fancoil_4pipe|zc>fancoil_4pipe|srf>none| 3 ERV_SensCoolEff 1, !- Name
  {9b746498-00c5-4312-a557-bd9d4614788b}, !- Independent Variable List Name
  DivisorOnly,                            !- Normalization Method
  0.5,                                    !- Normalization Divisor
  0,                                      !- Minimum Output {BasedOnField A5}
  10,                                     !- Maximum Output {BasedOnField A5}
  Dimensionless,                          !- Output Unit Type
  ,                                       !- External File Name
  ,                                       !- External File Column Number
  ,                                       !- External File Starting Row Number
  0.5,                                    !- Output Value 1 {BasedOnField A5}
  0.5;                                    !- Output Value 2 {BasedOnField A5}

OS:ModelObjectList,
  {9b746498-00c5-4312-a557-bd9d4614788b}, !- Handle
  Table Lookup 1 Independent Variable List 26, !- Name
  {30c06732-0eaa-451c-950a-112431277dc4}; !- Model Object 1

OS:Table:Lookup,
  {18ae10c6-46e1-4a9d-a836-9383ab5667c5}, !- Handle
  sys_1|doas|shr>none|sh>none|ssf>cv|zh>fancoil_4pipe|zc>fancoil_4pipe|srf>none| 3 ERV_LatCoolEff 1, !- Name
  {86b37122-180d-4291-952c-395a09663298}, !- Independent Variable List Name
  DivisorOnly,                            !- Normalization Method
  0.5,                                    !- Normalization Divisor
  0,                                      !- Minimum Output {BasedOnField A5}
  10,                                     !- Maximum Output {BasedOnField A5}
  Dimensionless,                          !- Output Unit Type
  ,                                       !- External File Name
  ,                                       !- External File Column Number
  ,                                       !- External File Starting Row Number
  0.5,                                    !- Output Value 1 {BasedOnField A5}
  0.5;                                    !- Output Value 2 {BasedOnField A5}

OS:ModelObjectList,
  {86b37122-180d-4291-952c-395a09663298}, !- Handle
  Table Lookup 1 Independent Variable List 27, !- Name
  {b3d7f91b-eb87-46d6-93ce-0a1cd3ca8a8c}; !- Model Object 1

OS:Table:Lookup,
  {af784550-ad41-4e95-95f0-016a6096e485}, !- Handle
  sys_1|doas|shr>none|sh>none|ssf>cv|zh>fancoil_4pipe|zc>fancoil_4pipe|srf>none| 2 ERV_SensHeatEff 1, !- Name
  {b26f5c4e-2082-4a6f-a415-6c735d1990e6}, !- Independent Variable List Name
  DivisorOnly,                            !- Normalization Method
  0.5,                                    !- Normalization Divisor
  0,                                      !- Minimum Output {BasedOnField A5}
  10,                                     !- Maximum Output {BasedOnField A5}
  Dimensionless,                          !- Output Unit Type
  ,                                       !- External File Name
  ,                                       !- External File Column Number
  ,                                       !- External File Starting Row Number
  0.5,                                    !- Output Value 1 {BasedOnField A5}
  0.5;                                    !- Output Value 2 {BasedOnField A5}

OS:ModelObjectList,
  {b26f5c4e-2082-4a6f-a415-6c735d1990e6}, !- Handle
  Table Lookup 1 Independent Variable List 28, !- Name
  {33b4e2d8-c9e5-4b89-a200-0ad274dfb1ee}; !- Model Object 1

OS:Table:Lookup,
  {4400220b-1824-4a16-9f04-0c6711789664}, !- Handle
  sys_1|doas|shr>none|sh>none|ssf>cv|zh>fancoil_4pipe|zc>fancoil_4pipe|srf>none| 2 ERV_LatHeatEff 1, !- Name
  {fcb39f3a-d4f9-421f-92be-a0f10cda73b4}, !- Independent Variable List Name
  DivisorOnly,                            !- Normalization Method
  0.5,                                    !- Normalization Divisor
  0,                                      !- Minimum Output {BasedOnField A5}
  10,                                     !- Maximum Output {BasedOnField A5}
  Dimensionless,                          !- Output Unit Type
  ,                                       !- External File Name
  ,                                       !- External File Column Number
  ,                                       !- External File Starting Row Number
  0.5,                                    !- Output Value 1 {BasedOnField A5}
  0.5;                                    !- Output Value 2 {BasedOnField A5}

OS:ModelObjectList,
  {fcb39f3a-d4f9-421f-92be-a0f10cda73b4}, !- Handle
  Table Lookup 1 Independent Variable List 29, !- Name
  {8d704829-e327-4880-a3ab-f7bebf2e02db}; !- Model Object 1

OS:Table:Lookup,
  {0723d4a4-903a-4406-bce4-3cf5316d1054}, !- Handle
  sys_1|doas|shr>none|sh>none|ssf>cv|zh>fancoil_4pipe|zc>fancoil_4pipe|srf>none| 2 ERV_SensCoolEff 1, !- Name
  {b6dde0be-3d61-443c-bf42-cb3511e42e38}, !- Independent Variable List Name
  DivisorOnly,                            !- Normalization Method
  0.5,                                    !- Normalization Divisor
  0,                                      !- Minimum Output {BasedOnField A5}
  10,                                     !- Maximum Output {BasedOnField A5}
  Dimensionless,                          !- Output Unit Type
  ,                                       !- External File Name
  ,                                       !- External File Column Number
  ,                                       !- External File Starting Row Number
  0.5,                                    !- Output Value 1 {BasedOnField A5}
  0.5;                                    !- Output Value 2 {BasedOnField A5}

OS:ModelObjectList,
  {b6dde0be-3d61-443c-bf42-cb3511e42e38}, !- Handle
  Table Lookup 1 Independent Variable List 30, !- Name
  {cd1a9f1c-ac3d-432f-87a6-81edc3e52684}; !- Model Object 1

OS:Table:Lookup,
  {3442384b-b62d-4c19-a2bf-81029b1e132c}, !- Handle
  sys_1|doas|shr>none|sh>none|ssf>cv|zh>fancoil_4pipe|zc>fancoil_4pipe|srf>none| 2 ERV_LatCoolEff 1, !- Name
  {dcc5a029-27ae-4c07-935e-dcb38db1bc4e}, !- Independent Variable List Name
  DivisorOnly,                            !- Normalization Method
  0.5,                                    !- Normalization Divisor
  0,                                      !- Minimum Output {BasedOnField A5}
  10,                                     !- Maximum Output {BasedOnField A5}
  Dimensionless,                          !- Output Unit Type
  ,                                       !- External File Name
  ,                                       !- External File Column Number
  ,                                       !- External File Starting Row Number
  0.5,                                    !- Output Value 1 {BasedOnField A5}
  0.5;                                    !- Output Value 2 {BasedOnField A5}

OS:ModelObjectList,
  {dcc5a029-27ae-4c07-935e-dcb38db1bc4e}, !- Handle
  Table Lookup 1 Independent Variable List 31, !- Name
  {1cbf32e3-4d98-4117-af4d-fe9221ba23f7}; !- Model Object 1

OS:Table:Lookup,
  {aab2df2e-f858-4d98-aee8-3a05f4296334}, !- Handle
  sys_1|doas|shr>none|sh>none|ssf>cv|zh>fancoil_4pipe|zc>fancoil_4pipe|srf>none| 1 ERV_SensHeatEff 1, !- Name
  {3d5e1dec-bd5c-401b-9c3a-7cb09d19cd63}, !- Independent Variable List Name
  DivisorOnly,                            !- Normalization Method
  0.5,                                    !- Normalization Divisor
  0,                                      !- Minimum Output {BasedOnField A5}
  10,                                     !- Maximum Output {BasedOnField A5}
  Dimensionless,                          !- Output Unit Type
  ,                                       !- External File Name
  ,                                       !- External File Column Number
  ,                                       !- External File Starting Row Number
  0.5,                                    !- Output Value 1 {BasedOnField A5}
  0.5;                                    !- Output Value 2 {BasedOnField A5}

OS:ModelObjectList,
  {3d5e1dec-bd5c-401b-9c3a-7cb09d19cd63}, !- Handle
  Table Lookup 1 Independent Variable List 32, !- Name
  {cc89acee-8d49-4d5d-8126-c06be6118e01}; !- Model Object 1

OS:Table:Lookup,
  {50348f9d-c36b-4cb5-931c-2f2a03368b84}, !- Handle
  sys_1|doas|shr>none|sh>none|ssf>cv|zh>fancoil_4pipe|zc>fancoil_4pipe|srf>none| 1 ERV_LatHeatEff 1, !- Name
  {21e746c0-715a-4bfa-869b-ae8be2622c48}, !- Independent Variable List Name
  DivisorOnly,                            !- Normalization Method
  0.5,                                    !- Normalization Divisor
  0,                                      !- Minimum Output {BasedOnField A5}
  10,                                     !- Maximum Output {BasedOnField A5}
  Dimensionless,                          !- Output Unit Type
  ,                                       !- External File Name
  ,                                       !- External File Column Number
  ,                                       !- External File Starting Row Number
  0.5,                                    !- Output Value 1 {BasedOnField A5}
  0.5;                                    !- Output Value 2 {BasedOnField A5}

OS:ModelObjectList,
  {21e746c0-715a-4bfa-869b-ae8be2622c48}, !- Handle
  Table Lookup 1 Independent Variable List 33, !- Name
  {f8409964-b9fb-480d-91e5-60d86075f265}; !- Model Object 1

OS:Table:Lookup,
  {fd021c35-f90c-4de5-a309-2e85c4312c1c}, !- Handle
  sys_1|doas|shr>none|sh>none|ssf>cv|zh>fancoil_4pipe|zc>fancoil_4pipe|srf>none| 1 ERV_SensCoolEff 1, !- Name
  {fc950a1a-4107-4e57-b782-2e3a0456ba61}, !- Independent Variable List Name
  DivisorOnly,                            !- Normalization Method
  0.5,                                    !- Normalization Divisor
  0,                                      !- Minimum Output {BasedOnField A5}
  10,                                     !- Maximum Output {BasedOnField A5}
  Dimensionless,                          !- Output Unit Type
  ,                                       !- External File Name
  ,                                       !- External File Column Number
  ,                                       !- External File Starting Row Number
  0.5,                                    !- Output Value 1 {BasedOnField A5}
  0.5;                                    !- Output Value 2 {BasedOnField A5}

OS:ModelObjectList,
  {fc950a1a-4107-4e57-b782-2e3a0456ba61}, !- Handle
  Table Lookup 1 Independent Variable List 34, !- Name
  {699ecda7-8114-4e77-bdd1-42b7dac4db27}; !- Model Object 1

OS:Table:Lookup,
  {4593b371-ae77-4ca9-9efe-60f412cbfe18}, !- Handle
  sys_1|doas|shr>none|sh>none|ssf>cv|zh>fancoil_4pipe|zc>fancoil_4pipe|srf>none| 1 ERV_LatCoolEff 1, !- Name
  {4a81fb9e-cdbd-4ae8-a09d-efab926d54b8}, !- Independent Variable List Name
  DivisorOnly,                            !- Normalization Method
  0.5,                                    !- Normalization Divisor
  0,                                      !- Minimum Output {BasedOnField A5}
  10,                                     !- Maximum Output {BasedOnField A5}
  Dimensionless,                          !- Output Unit Type
  ,                                       !- External File Name
  ,                                       !- External File Column Number
  ,                                       !- External File Starting Row Number
  0.5,                                    !- Output Value 1 {BasedOnField A5}
  0.5;                                    !- Output Value 2 {BasedOnField A5}

OS:ModelObjectList,
  {4a81fb9e-cdbd-4ae8-a09d-efab926d54b8}, !- Handle
  Table Lookup 1 Independent Variable List 35, !- Name
  {8247e4bd-2836-4974-a42b-fec5d35d0cc0}; !- Model Object 1

OS:Table:Lookup,
  {77bd3416-1d64-4764-a335-77b2f36c6813}, !- Handle
  sys_1|doas|shr>none|sh>none|ssf>cv|zh>fancoil_4pipe|zc>fancoil_4pipe|srf>none| ERV_SensHeatEff 1, !- Name
  {5c5be454-dad3-481e-80fc-dc0e85ab9a8c}, !- Independent Variable List Name
  DivisorOnly,                            !- Normalization Method
  0.5,                                    !- Normalization Divisor
  0,                                      !- Minimum Output {BasedOnField A5}
  10,                                     !- Maximum Output {BasedOnField A5}
  Dimensionless,                          !- Output Unit Type
  ,                                       !- External File Name
  ,                                       !- External File Column Number
  ,                                       !- External File Starting Row Number
  0.5,                                    !- Output Value 1 {BasedOnField A5}
  0.5;                                    !- Output Value 2 {BasedOnField A5}

OS:ModelObjectList,
  {5c5be454-dad3-481e-80fc-dc0e85ab9a8c}, !- Handle
  Table Lookup 1 Independent Variable List 36, !- Name
  {9724a317-377f-46e9-9277-9ba33f98c18d}; !- Model Object 1

OS:Table:Lookup,
  {a0fa7e5b-6fb1-46cb-a4e8-36744f0c61b6}, !- Handle
  sys_1|doas|shr>none|sh>none|ssf>cv|zh>fancoil_4pipe|zc>fancoil_4pipe|srf>none| ERV_LatHeatEff 1, !- Name
  {90af3eb9-6f5e-4b5d-9da1-237aeca9f634}, !- Independent Variable List Name
  DivisorOnly,                            !- Normalization Method
  0.5,                                    !- Normalization Divisor
  0,                                      !- Minimum Output {BasedOnField A5}
  10,                                     !- Maximum Output {BasedOnField A5}
  Dimensionless,                          !- Output Unit Type
  ,                                       !- External File Name
  ,                                       !- External File Column Number
  ,                                       !- External File Starting Row Number
  0.5,                                    !- Output Value 1 {BasedOnField A5}
  0.5;                                    !- Output Value 2 {BasedOnField A5}

OS:ModelObjectList,
  {90af3eb9-6f5e-4b5d-9da1-237aeca9f634}, !- Handle
  Table Lookup 1 Independent Variable List, !- Name
  {9b36ac79-27de-4a5c-b032-e190473de315}; !- Model Object 1

OS:Table:Lookup,
  {4c85889d-eeb6-496b-9bca-c412ac56fe34}, !- Handle
  sys_1|doas|shr>none|sh>none|ssf>cv|zh>fancoil_4pipe|zc>fancoil_4pipe|srf>none| ERV_SensCoolEff 1, !- Name
  {6259bf01-02fd-41d6-aff1-d1575489c57f}, !- Independent Variable List Name
  DivisorOnly,                            !- Normalization Method
  0.5,                                    !- Normalization Divisor
  0,                                      !- Minimum Output {BasedOnField A5}
  10,                                     !- Maximum Output {BasedOnField A5}
  Dimensionless,                          !- Output Unit Type
  ,                                       !- External File Name
  ,                                       !- External File Column Number
  ,                                       !- External File Starting Row Number
  0.5,                                    !- Output Value 1 {BasedOnField A5}
  0.5;                                    !- Output Value 2 {BasedOnField A5}

OS:ModelObjectList,
  {6259bf01-02fd-41d6-aff1-d1575489c57f}, !- Handle
  Table Lookup 1 Independent Variable List 37, !- Name
  {a3d45d4c-0507-4bc2-b189-0814a5e8bcbb}; !- Model Object 1

OS:Table:Lookup,
  {cf9e9267-9773-4900-aa09-308ed22be96c}, !- Handle
  sys_1|doas|shr>none|sh>none|ssf>cv|zh>fancoil_4pipe|zc>fancoil_4pipe|srf>none| ERV_LatCoolEff 1, !- Name
  {ba20dee8-a43e-4ffc-89e9-8fefcbbe28d9}, !- Independent Variable List Name
  DivisorOnly,                            !- Normalization Method
  0.5,                                    !- Normalization Divisor
  0,                                      !- Minimum Output {BasedOnField A5}
  10,                                     !- Maximum Output {BasedOnField A5}
  Dimensionless,                          !- Output Unit Type
  ,                                       !- External File Name
  ,                                       !- External File Column Number
  ,                                       !- External File Starting Row Number
  0.5,                                    !- Output Value 1 {BasedOnField A5}
  0.5;                                    !- Output Value 2 {BasedOnField A5}

OS:ModelObjectList,
  {ba20dee8-a43e-4ffc-89e9-8fefcbbe28d9}, !- Handle
  Table Lookup 1 Independent Variable List 38, !- Name
  {413db165-c061-43c1-8755-bff7dd9546cd}; !- Model Object 1

OS:Curve:Biquadratic,
  {81ccaf03-1f98-49a2-954b-3347db5254c6}, !- Handle
  AirCooled_Screw_CAPFT_NECB2011,         !- Name
  0.98654,                                !- Coefficient1 Constant
  0.0495029,                              !- Coefficient2 x
  -0.000298242,                           !- Coefficient3 x**2
  -0.00368496,                            !- Coefficient4 y
  -4.455e-05,                             !- Coefficient5 y**2
  -0.000501,                              !- Coefficient6 x*y
  5,                                      !- Minimum Value of x
  10,                                     !- Maximum Value of x
  24,                                     !- Minimum Value of y
  35;                                     !- Maximum Value of y

OS:Curve:Biquadratic,
  {461bcb65-a1e9-4247-b23f-fc2524e3abbd}, !- Handle
  AirCooled_Screw_EIRFT_NECB2011,         !- Name
  0.449672,                               !- Coefficient1 Constant
  0.0120074,                              !- Coefficient2 x
  -0.000521964,                           !- Coefficient3 x**2
  1.944e-05,                              !- Coefficient4 y
  0.000420876,                            !- Coefficient5 y**2
  -0.000602,                              !- Coefficient6 x*y
  5,                                      !- Minimum Value of x
  10,                                     !- Maximum Value of x
  24,                                     !- Minimum Value of y
  35;                                     !- Maximum Value of y

OS:Curve:Quadratic,
  {08ccab18-f2ea-4a31-8304-22669873926f}, !- Handle
  AirCooled_Screw_EIRFPLR_NECB2011,       !- Name
  0.03648722,                             !- Coefficient1 Constant
  0.73474298,                             !- Coefficient2 x
  0.21994748,                             !- Coefficient3 x**2
  0,                                      !- Minimum Value of x
  1;                                      !- Maximum Value of x

