
OS:Version,
  {9e10e089-2e38-4b61-8acd-8d28d1f21078}, !- Handle
  3.9.0;                                  !- Version Identifier

OS:ScheduleTypeLimits,
  {d14fd3f4-12d7-4953-a40f-c9178c20449a}, !- Handle
  Always On Discrete Limits,              !- Name
  0,                                      !- Lower Limit Value
  1,                                      !- Upper Limit Value
  Discrete,                               !- Numeric Type
  Availability;                           !- Unit Type

OS:Site,
  {780cebd4-d970-49f6-8a67-996a6b51b6bf}, !- Handle
  Calgary Intl AP_AB_CAN,                 !- Name
  51.11,                                  !- Latitude {deg}
  -114.02,                                !- Longitude {deg}
  -7,                                     !- Time Zone {hr}
  1084.1,                                 !- Elevation {m}
  City;                                   !- Terrain

OS:SimulationControl,
  {8e6d581c-8bc1-4ad1-93a1-3671638d2d44}, !- Handle
  Yes,                                    !- Do Zone Sizing Calculation
  Yes,                                    !- Do System Sizing Calculation
  Yes,                                    !- Do Plant Sizing Calculation
  No,                                     !- Run Simulation for Sizing Periods
  Yes,                                    !- Run Simulation for Weather File Run Periods
  0.04,                                   !- Loads Convergence Tolerance Value {W}
  0.2,                                    !- Temperature Convergence Tolerance Value {deltaC}
  FullInteriorAndExterior,                !- Solar Distribution
  25,                                     !- Maximum Number of Warmup Days
  6,                                      !- Minimum Number of Warmup Days
  No,                                     !- Do HVAC Sizing Simulation for Sizing Periods
  1;                                      !- Maximum Number of HVAC Sizing Simulation Passes

OS:Surface,
  {f92df46b-44ed-4bc4-a65b-b4687c727c14}, !- Handle
  Kitchen_Ceiling,                        !- Name
  RoofCeiling,                            !- Surface Type
  ,                                       !- Construction Name
  {77d3cfbe-7d30-4aaf-86db-75976a798830}, !- Space Name
  Surface,                                !- Outside Boundary Condition
  {99a3fb5b-eea2-4c47-b391-cc45f8583bd0}, !- Outside Boundary Condition Object
  NoSun,                                  !- Sun Exposure
  NoWind,                                 !- Wind Exposure
  ,                                       !- View Factor to Ground
  ,                                       !- Number of Vertices
  22.6087, 16.4427, 3.0488,               !- X,Y,Z Vertex 1 {m}
  22.6087, 22.6087, 3.0488,               !- X,Y,Z Vertex 2 {m}
  0, 22.6087, 3.0488,                     !- X,Y,Z Vertex 3 {m}
  0, 16.4427, 3.0488;                     !- X,Y,Z Vertex 4 {m}

OS:Space,
  {77d3cfbe-7d30-4aaf-86db-75976a798830}, !- Handle
  Kitchen,                                !- Name
  {f72f339a-7251-400d-abf7-c267ec6d3b23}, !- Space Type Name
  ,                                       !- Default Construction Set Name
  ,                                       !- Default Schedule Set Name
  0,                                      !- Direction of Relative North {deg}
  0,                                      !- X Origin {m}
  0,                                      !- Y Origin {m}
  0,                                      !- Z Origin {m}
  {28f49d8d-3737-4296-b4ec-3bf67b00f788}, !- Building Story Name
  {45c6cd12-ef5a-40b5-b53f-1a24d8ee4ec2}, !- Thermal Zone Name
  Yes,                                    !- Part of Total Floor Area
  ,                                       !- Design Specification Outdoor Air Object Name
  ,                                       !- Building Unit Name
  Autocalculate;                          !- Volume {m3}

OS:Output:Meter,
  {2c504f0f-1677-4791-a625-c9fdceff2175}, !- Handle
  ElectricityNet:Facility,                !- Name
  Hourly,                                 !- Reporting Frequency
  True,                                   !- Meter File Only
  False;                                  !- Cumulative

OS:Surface,
  {a98a3d24-77be-4dd8-9ea4-dce8b4b21baf}, !- Handle
  Dining_Wall_South,                      !- Name
  Wall,                                   !- Surface Type
  ,                                       !- Construction Name
  {d48cb50c-3a07-4ed6-baac-fe451a3f5495}, !- Space Name
  Outdoors,                               !- Outside Boundary Condition
  ,                                       !- Outside Boundary Condition Object
  SunExposed,                             !- Sun Exposure
  WindExposed,                            !- Wind Exposure
  ,                                       !- View Factor to Ground
  ,                                       !- Number of Vertices
  0, 0, 3.0488,                           !- X,Y,Z Vertex 1 {m}
  0, 0, 0,                                !- X,Y,Z Vertex 2 {m}
  22.6087, 0, 0,                          !- X,Y,Z Vertex 3 {m}
  22.6087, 0, 3.0488;                     !- X,Y,Z Vertex 4 {m}

OS:Space,
  {d48cb50c-3a07-4ed6-baac-fe451a3f5495}, !- Handle
  Dining,                                 !- Name
  {74d79ecf-87d4-4cbb-ba37-86cfde5c20bb}, !- Space Type Name
  ,                                       !- Default Construction Set Name
  ,                                       !- Default Schedule Set Name
  0,                                      !- Direction of Relative North {deg}
  0,                                      !- X Origin {m}
  0,                                      !- Y Origin {m}
  0,                                      !- Z Origin {m}
  {28f49d8d-3737-4296-b4ec-3bf67b00f788}, !- Building Story Name
  {09a88b11-f706-4064-8bf1-f8d0e766c1f6}, !- Thermal Zone Name
  Yes,                                    !- Part of Total Floor Area
  ,                                       !- Design Specification Outdoor Air Object Name
  ,                                       !- Building Unit Name
  Autocalculate;                          !- Volume {m3}

OS:Surface,
  {2d02da2f-1bea-4fb4-b48e-f0da184c6074}, !- Handle
  north-roof,                             !- Name
  RoofCeiling,                            !- Surface Type
  ,                                       !- Construction Name
  {a6d9b45b-2723-43c6-8355-1e3d52bed681}, !- Space Name
  Outdoors,                               !- Outside Boundary Condition
  ,                                       !- Outside Boundary Condition Object
  SunExposed,                             !- Sun Exposure
  WindExposed,                            !- Wind Exposure
  ,                                       !- View Factor to Ground
  ,                                       !- Number of Vertices
  11.3044, 18.8397, 3.7692,               !- X,Y,Z Vertex 1 {m}
  22.6087, 22.6087, 0,                    !- X,Y,Z Vertex 2 {m}
  0, 22.6087, 0;                          !- X,Y,Z Vertex 3 {m}

OS:Space,
  {a6d9b45b-2723-43c6-8355-1e3d52bed681}, !- Handle
  attic,                                  !- Name
  {73bc1497-600d-436a-a675-cd1456fcf9ac}, !- Space Type Name
  ,                                       !- Default Construction Set Name
  ,                                       !- Default Schedule Set Name
  0,                                      !- Direction of Relative North {deg}
  0,                                      !- X Origin {m}
  0,                                      !- Y Origin {m}
  3.0488,                                 !- Z Origin {m}
  {f0fd8038-c2dd-4caa-93ad-11e3bdfa35ec}, !- Building Story Name
  {21043d71-829f-4aba-9216-42335c8b001e}, !- Thermal Zone Name
  No,                                     !- Part of Total Floor Area
  ,                                       !- Design Specification Outdoor Air Object Name
  ,                                       !- Building Unit Name
  Autocalculate;                          !- Volume {m3}

OS:Surface,
  {628c7363-89f7-4a36-b959-b9f52e0cab7c}, !- Handle
  Kitchen_Wall_North,                     !- Name
  Wall,                                   !- Surface Type
  ,                                       !- Construction Name
  {77d3cfbe-7d30-4aaf-86db-75976a798830}, !- Space Name
  Outdoors,                               !- Outside Boundary Condition
  ,                                       !- Outside Boundary Condition Object
  SunExposed,                             !- Sun Exposure
  WindExposed,                            !- Wind Exposure
  ,                                       !- View Factor to Ground
  ,                                       !- Number of Vertices
  22.6087, 22.6087, 3.0488,               !- X,Y,Z Vertex 1 {m}
  22.6087, 22.6087, 0,                    !- X,Y,Z Vertex 2 {m}
  0, 22.6087, 0,                          !- X,Y,Z Vertex 3 {m}
  0, 22.6087, 3.0488;                     !- X,Y,Z Vertex 4 {m}

OS:Surface,
  {c8a19cd4-2eef-4dab-9ff8-b3cd1bd596db}, !- Handle
  south-roof,                             !- Name
  RoofCeiling,                            !- Surface Type
  ,                                       !- Construction Name
  {a6d9b45b-2723-43c6-8355-1e3d52bed681}, !- Space Name
  Outdoors,                               !- Outside Boundary Condition
  ,                                       !- Outside Boundary Condition Object
  SunExposed,                             !- Sun Exposure
  WindExposed,                            !- Wind Exposure
  ,                                       !- View Factor to Ground
  ,                                       !- Number of Vertices
  11.3044, 3.769, 3.7692,                 !- X,Y,Z Vertex 1 {m}
  -1.73917179908584e-034, -6.74580236774689e-017, 6.7454444242911e-017, !- X,Y,Z Vertex 2 {m}
  22.6087, -9.66039263974126e-017, 9.65988004329428e-017; !- X,Y,Z Vertex 3 {m}

OS:Surface,
  {80882478-4818-4b6c-a701-0a4f97af99ea}, !- Handle
  Dining_Wall_East,                       !- Name
  Wall,                                   !- Surface Type
  ,                                       !- Construction Name
  {d48cb50c-3a07-4ed6-baac-fe451a3f5495}, !- Space Name
  Outdoors,                               !- Outside Boundary Condition
  ,                                       !- Outside Boundary Condition Object
  SunExposed,                             !- Sun Exposure
  WindExposed,                            !- Wind Exposure
  ,                                       !- View Factor to Ground
  ,                                       !- Number of Vertices
  22.6087, 0, 3.0488,                     !- X,Y,Z Vertex 1 {m}
  22.6087, 0, 0,                          !- X,Y,Z Vertex 2 {m}
  22.6087, 16.4427, 0,                    !- X,Y,Z Vertex 3 {m}
  22.6087, 16.4427, 3.0488;               !- X,Y,Z Vertex 4 {m}

OS:Timestep,
  {79cc9340-93d4-4f72-a5ca-b64451a57564}, !- Handle
  6;                                      !- Number of Timesteps per Hour

OS:Surface,
  {8f0d9014-6f65-4cc2-a0bf-390dce688306}, !- Handle
  Dining_Wall_West,                       !- Name
  Wall,                                   !- Surface Type
  ,                                       !- Construction Name
  {d48cb50c-3a07-4ed6-baac-fe451a3f5495}, !- Space Name
  Outdoors,                               !- Outside Boundary Condition
  ,                                       !- Outside Boundary Condition Object
  SunExposed,                             !- Sun Exposure
  WindExposed,                            !- Wind Exposure
  ,                                       !- View Factor to Ground
  ,                                       !- Number of Vertices
  0, 16.4427, 3.0488,                     !- X,Y,Z Vertex 1 {m}
  0, 16.4427, 0,                          !- X,Y,Z Vertex 2 {m}
  0, 0, 0,                                !- X,Y,Z Vertex 3 {m}
  0, 0, 3.0488;                           !- X,Y,Z Vertex 4 {m}

OS:Surface,
  {cb50c49a-cbad-4855-96c4-0782e1d597c9}, !- Handle
  Dining_Floor,                           !- Name
  Floor,                                  !- Surface Type
  {4ed46275-d90a-4703-b90c-0714d71da9ed}, !- Construction Name
  {d48cb50c-3a07-4ed6-baac-fe451a3f5495}, !- Space Name
  Foundation,                             !- Outside Boundary Condition
  {a8775829-3e44-47d9-92c7-ade34b8e9dbb}, !- Outside Boundary Condition Object
  NoSun,                                  !- Sun Exposure
  NoWind,                                 !- Wind Exposure
  ,                                       !- View Factor to Ground
  ,                                       !- Number of Vertices
  22.6087, 16.4427, 0,                    !- X,Y,Z Vertex 1 {m}
  22.6087, 0, 0,                          !- X,Y,Z Vertex 2 {m}
  0, 0, 0,                                !- X,Y,Z Vertex 3 {m}
  0, 16.4427, 0;                          !- X,Y,Z Vertex 4 {m}

OS:Surface,
  {ff63dcc8-88a6-4e75-a736-a16ea7374519}, !- Handle
  Dining_Ceiling,                         !- Name
  RoofCeiling,                            !- Surface Type
  ,                                       !- Construction Name
  {d48cb50c-3a07-4ed6-baac-fe451a3f5495}, !- Space Name
  Surface,                                !- Outside Boundary Condition
  {60fffe8d-e21f-43c1-9f06-30986f76ee3e}, !- Outside Boundary Condition Object
  NoSun,                                  !- Sun Exposure
  NoWind,                                 !- Wind Exposure
  ,                                       !- View Factor to Ground
  ,                                       !- Number of Vertices
  22.6087, 0, 3.0488,                     !- X,Y,Z Vertex 1 {m}
  22.6087, 16.4427, 3.0488,               !- X,Y,Z Vertex 2 {m}
  0, 16.4427, 3.0488,                     !- X,Y,Z Vertex 3 {m}
  0, 0, 3.0488;                           !- X,Y,Z Vertex 4 {m}

OS:Surface,
  {15bdfbf5-28b3-4f6b-939c-af2a310fc326}, !- Handle
  west-roof,                              !- Name
  RoofCeiling,                            !- Surface Type
  ,                                       !- Construction Name
  {a6d9b45b-2723-43c6-8355-1e3d52bed681}, !- Space Name
  Outdoors,                               !- Outside Boundary Condition
  ,                                       !- Outside Boundary Condition Object
  SunExposed,                             !- Sun Exposure
  WindExposed,                            !- Wind Exposure
  ,                                       !- View Factor to Ground
  ,                                       !- Number of Vertices
  11.3044, 18.8397, 3.7692,               !- X,Y,Z Vertex 1 {m}
  -1.57308521999447e-016, 22.6087, 4.71792013183315e-016, !- X,Y,Z Vertex 2 {m}
  -1.1417329679585e-016, -2.17720723655857e-033, 3.42422958797359e-016, !- X,Y,Z Vertex 3 {m}
  11.3044, 3.769, 3.7692;                 !- X,Y,Z Vertex 4 {m}

OS:Surface,
  {b8b44463-bcda-4673-8d04-2c845d134292}, !- Handle
  Kitchen_Wall_West,                      !- Name
  Wall,                                   !- Surface Type
  ,                                       !- Construction Name
  {77d3cfbe-7d30-4aaf-86db-75976a798830}, !- Space Name
  Outdoors,                               !- Outside Boundary Condition
  ,                                       !- Outside Boundary Condition Object
  SunExposed,                             !- Sun Exposure
  WindExposed,                            !- Wind Exposure
  ,                                       !- View Factor to Ground
  ,                                       !- Number of Vertices
  0, 22.6087, 3.0488,                     !- X,Y,Z Vertex 1 {m}
  0, 22.6087, 0,                          !- X,Y,Z Vertex 2 {m}
  0, 16.4427, 0,                          !- X,Y,Z Vertex 3 {m}
  0, 16.4427, 3.0488;                     !- X,Y,Z Vertex 4 {m}

OS:Surface,
  {18d25d92-d723-4017-980c-f20184bc1dd2}, !- Handle
  Dining_Wall_North-PPAutoCreateOther,    !- Name
  Wall,                                   !- Surface Type
  ,                                       !- Construction Name
  {77d3cfbe-7d30-4aaf-86db-75976a798830}, !- Space Name
  Surface,                                !- Outside Boundary Condition
  {1bf4d799-b7fc-481e-b40e-29c78d189519}, !- Outside Boundary Condition Object
  NoSun,                                  !- Sun Exposure
  NoWind,                                 !- Wind Exposure
  ,                                       !- View Factor to Ground
  ,                                       !- Number of Vertices
  0, 16.4427, 3.0488,                     !- X,Y,Z Vertex 1 {m}
  0, 16.4427, 0,                          !- X,Y,Z Vertex 2 {m}
  22.6087, 16.4427, 0,                    !- X,Y,Z Vertex 3 {m}
  22.6087, 16.4427, 3.0488;               !- X,Y,Z Vertex 4 {m}

OS:ShadowCalculation,
  {137b265b-7d90-4b85-83d6-6f49d95bdf56}, !- Handle
  PolygonClipping,                        !- Shading Calculation Method
  ,                                       !- Shading Calculation Update Frequency Method
  7,                                      !- Shading Calculation Update Frequency
  15000,                                  !- Maximum Figures in Shadow Overlap Calculations
  ,                                       !- Polygon Clipping Algorithm
  512,                                    !- Pixel Counting Resolution
  ,                                       !- Sky Diffuse Modeling Algorithm
  No,                                     !- Output External Shading Calculation Results
  No,                                     !- Disable Self-Shading Within Shading Zone Groups
  No;                                     !- Disable Self-Shading From Shading Zone Groups to Other Zones

OS:Surface,
  {60fffe8d-e21f-43c1-9f06-30986f76ee3e}, !- Handle
  attic-floor-dinning,                    !- Name
  Floor,                                  !- Surface Type
  ,                                       !- Construction Name
  {a6d9b45b-2723-43c6-8355-1e3d52bed681}, !- Space Name
  Surface,                                !- Outside Boundary Condition
  {ff63dcc8-88a6-4e75-a736-a16ea7374519}, !- Outside Boundary Condition Object
  NoSun,                                  !- Sun Exposure
  NoWind,                                 !- Wind Exposure
  ,                                       !- View Factor to Ground
  ,                                       !- Number of Vertices
  22.6087, 16.4427, 0,                    !- X,Y,Z Vertex 1 {m}
  22.6087, 0, 0,                          !- X,Y,Z Vertex 2 {m}
  0, 0, 0,                                !- X,Y,Z Vertex 3 {m}
  0, 16.4427, 0;                          !- X,Y,Z Vertex 4 {m}

OS:Surface,
  {99a3fb5b-eea2-4c47-b391-cc45f8583bd0}, !- Handle
  attic-floor-kitchen,                    !- Name
  Floor,                                  !- Surface Type
  ,                                       !- Construction Name
  {a6d9b45b-2723-43c6-8355-1e3d52bed681}, !- Space Name
  Surface,                                !- Outside Boundary Condition
  {f92df46b-44ed-4bc4-a65b-b4687c727c14}, !- Outside Boundary Condition Object
  NoSun,                                  !- Sun Exposure
  NoWind,                                 !- Wind Exposure
  ,                                       !- View Factor to Ground
  ,                                       !- Number of Vertices
  22.6087, 22.6087, 0,                    !- X,Y,Z Vertex 1 {m}
  22.6087, 16.4427, 0,                    !- X,Y,Z Vertex 2 {m}
  0, 16.4427, 0,                          !- X,Y,Z Vertex 3 {m}
  0, 22.6087, 0;                          !- X,Y,Z Vertex 4 {m}

OS:Surface,
  {f5f1a811-415b-4d09-b2da-ccbe1f40d3a2}, !- Handle
  Kitchen_Floor,                          !- Name
  Floor,                                  !- Surface Type
  {4ed46275-d90a-4703-b90c-0714d71da9ed}, !- Construction Name
  {77d3cfbe-7d30-4aaf-86db-75976a798830}, !- Space Name
  Foundation,                             !- Outside Boundary Condition
  {a8775829-3e44-47d9-92c7-ade34b8e9dbb}, !- Outside Boundary Condition Object
  NoSun,                                  !- Sun Exposure
  NoWind,                                 !- Wind Exposure
  ,                                       !- View Factor to Ground
  ,                                       !- Number of Vertices
  22.6087, 22.6087, 0,                    !- X,Y,Z Vertex 1 {m}
  22.6087, 16.4427, 0,                    !- X,Y,Z Vertex 2 {m}
  0, 16.4427, 0,                          !- X,Y,Z Vertex 3 {m}
  0, 22.6087, 0;                          !- X,Y,Z Vertex 4 {m}

OS:RunPeriod,
  {3c4ccfb1-e715-4662-9c52-be1b0a138576}, !- Handle
  Run Period 1,                           !- Name
  1,                                      !- Begin Month
  1,                                      !- Begin Day of Month
  12,                                     !- End Month
  31,                                     !- End Day of Month
  No,                                     !- Use Weather File Holidays and Special Days
  No,                                     !- Use Weather File Daylight Saving Period
  No,                                     !- Apply Weekend Holiday Rule
  Yes,                                    !- Use Weather File Rain Indicators
  Yes,                                    !- Use Weather File Snow Indicators
  1;                                      !- Number of Times Runperiod to be Repeated

OS:YearDescription,
  {7190988a-56b7-49e4-be5c-e6199b78fff0}, !- Handle
  ,                                       !- Calendar Year
  Sunday;                                 !- Day of Week for Start Day

OS:HeatBalanceAlgorithm,
  {64382367-5719-4453-8c29-e1a70cef6d9c}, !- Handle
  ConductionTransferFunction,             !- Algorithm
  200;                                    !- Surface Temperature Upper Limit {C}

OS:Surface,
  {1bf4d799-b7fc-481e-b40e-29c78d189519}, !- Handle
  Dining_Wall_North,                      !- Name
  Wall,                                   !- Surface Type
  ,                                       !- Construction Name
  {d48cb50c-3a07-4ed6-baac-fe451a3f5495}, !- Space Name
  Surface,                                !- Outside Boundary Condition
  {18d25d92-d723-4017-980c-f20184bc1dd2}, !- Outside Boundary Condition Object
  NoSun,                                  !- Sun Exposure
  NoWind,                                 !- Wind Exposure
  ,                                       !- View Factor to Ground
  ,                                       !- Number of Vertices
  22.6087, 16.4427, 3.0488,               !- X,Y,Z Vertex 1 {m}
  22.6087, 16.4427, 0,                    !- X,Y,Z Vertex 2 {m}
  0, 16.4427, 0,                          !- X,Y,Z Vertex 3 {m}
  0, 16.4427, 3.0488;                     !- X,Y,Z Vertex 4 {m}

OS:Output:Meter,
  {691ea4a2-e815-4852-aa14-ac1ce9bfcf5c}, !- Handle
  NaturalGas:Facility,                    !- Name
  Hourly,                                 !- Reporting Frequency
  True,                                   !- Meter File Only
  False;                                  !- Cumulative

OS:ConvergenceLimits,
  {a71a34c7-4772-4b25-9024-f2d758143793}, !- Handle
  1,                                      !- Minimum System Timestep {minutes}
  20;                                     !- Maximum HVAC Iterations

OS:Output:Meter,
  {ceae7f14-5ab7-4a91-9729-89b3f9655715}, !- Handle
  Electricity:Facility,                   !- Name
  Hourly,                                 !- Reporting Frequency
  True,                                   !- Meter File Only
  False;                                  !- Cumulative

OS:Surface,
  {c948d197-ce91-4318-a26c-8d47d0d034ce}, !- Handle
  Kitchen_Wall_East,                      !- Name
  Wall,                                   !- Surface Type
  ,                                       !- Construction Name
  {77d3cfbe-7d30-4aaf-86db-75976a798830}, !- Space Name
  Outdoors,                               !- Outside Boundary Condition
  ,                                       !- Outside Boundary Condition Object
  SunExposed,                             !- Sun Exposure
  WindExposed,                            !- Wind Exposure
  ,                                       !- View Factor to Ground
  ,                                       !- Number of Vertices
  22.6087, 16.4427, 3.0488,               !- X,Y,Z Vertex 1 {m}
  22.6087, 16.4427, 0,                    !- X,Y,Z Vertex 2 {m}
  22.6087, 22.6087, 0,                    !- X,Y,Z Vertex 3 {m}
  22.6087, 22.6087, 3.0488;               !- X,Y,Z Vertex 4 {m}

OS:Building,
  {57a0612b-80fa-4a4f-8704-b192e6d39f92}, !- Handle
  FullServiceRestaurant,                  !- Name
  ,                                       !- Building Sector Type
  0,                                      !- North Axis {deg}
  ,                                       !- Nominal Floor to Floor Height {m}
  ,                                       !- Space Type Name
  {de354c4f-6f9c-4abb-8eb4-b3a74b886419}, !- Default Construction Set Name
  ,                                       !- Default Schedule Set Name
  1,                                      !- Standards Number of Stories
  1,                                      !- Standards Number of Above Ground Stories
  NECB2011,                               !- Standards Template
  FullServiceRestaurant;                  !- Standards Building Type

OS:Surface,
  {2634f8db-e6bf-4750-b638-5aac0aaf0b7c}, !- Handle
  east-roof,                              !- Name
  RoofCeiling,                            !- Surface Type
  ,                                       !- Construction Name
  {a6d9b45b-2723-43c6-8355-1e3d52bed681}, !- Space Name
  Outdoors,                               !- Outside Boundary Condition
  ,                                       !- Outside Boundary Condition Object
  SunExposed,                             !- Sun Exposure
  WindExposed,                            !- Wind Exposure
  ,                                       !- View Factor to Ground
  ,                                       !- Number of Vertices
  11.3044, 3.769, 3.7692,                 !- X,Y,Z Vertex 1 {m}
  22.6087, 0, 0,                          !- X,Y,Z Vertex 2 {m}
  22.6087, 22.6087, 0,                    !- X,Y,Z Vertex 3 {m}
  11.3044, 18.8397, 3.7692;               !- X,Y,Z Vertex 4 {m}

OS:Facility,
  {8630d1c8-2694-4622-ac46-ec75f253c7ea}; !- Handle

OS:BuildingStory,
  {28f49d8d-3737-4296-b4ec-3bf67b00f788}, !- Handle
  Building Story 1,                       !- Name
  0,                                      !- Nominal Z Coordinate {m}
  ,                                       !- Nominal Floor to Floor Height {m}
  ,                                       !- Default Construction Set Name
  ,                                       !- Default Schedule Set Name
  ;                                       !- Group Rendering Name

OS:BuildingStory,
  {f0fd8038-c2dd-4caa-93ad-11e3bdfa35ec}, !- Handle
  Building Story 2,                       !- Name
  3.0488,                                 !- Nominal Z Coordinate {m}
  ,                                       !- Nominal Floor to Floor Height {m}
  ,                                       !- Default Construction Set Name
  ,                                       !- Default Schedule Set Name
  ;                                       !- Group Rendering Name

OS:WeatherFile,
  {591e076f-b1ff-4f98-9dd0-4f1873bc12ec}, !- Handle
  Calgary Intl AP,                        !- City
  AB,                                     !- State Province Region
  CAN,                                    !- Country
  CWEC2020,                               !- Data Source
  718770,                                 !- WMO Number
  51.11,                                  !- Latitude {deg}
  -114.02,                                !- Longitude {deg}
  -7,                                     !- Time Zone {hr}
  1084.1,                                 !- Elevation {m}
  /home/osdev/openstudio-standards/data/weather/CAN_AB_Calgary.Intl.AP.718770_CWEC2020.epw, !- Url
  1F2D03BB,                               !- Checksum
  ,                                       !- Start Date Actual Year
  Sunday;                                 !- Start Day of Week

OS:Site:WaterMainsTemperature,
  {d4488da0-43af-4769-8758-7b0d3a753888}, !- Handle
  Correlation,                            !- Calculation Method
  ,                                       !- Temperature Schedule Name
  4.69166666666667,                       !- Annual Average Outdoor Air Temperature {C}
  24.6;                                   !- Maximum Difference In Monthly Average Outdoor Air Temperatures {deltaC}

OS:Site:GroundTemperature:BuildingSurface,
  {e1936907-687d-474b-be93-754a3a0b3ae4}, !- Handle
  19.527,                                 !- January Ground Temperature {C}
  19.502,                                 !- February Ground Temperature {C}
  19.536,                                 !- March Ground Temperature {C}
  19.598,                                 !- April Ground Temperature {C}
  20.002,                                 !- May Ground Temperature {C}
  21.64,                                  !- June Ground Temperature {C}
  22.225,                                 !- July Ground Temperature {C}
  22.375,                                 !- August Ground Temperature {C}
  21.449,                                 !- September Ground Temperature {C}
  20.121,                                 !- October Ground Temperature {C}
  19.802,                                 !- November Ground Temperature {C}
  19.633;                                 !- December Ground Temperature {C}

OS:SpaceType,
  {73bc1497-600d-436a-a675-cd1456fcf9ac}, !- Handle
  Space Function - undefined -,           !- Name
  ,                                       !- Default Construction Set Name
  {13805a41-eb64-4e0b-b43f-63c6e78ee2f6}, !- Default Schedule Set Name
  {219b581f-6189-454a-8bf3-561b6d4af184}, !- Group Rendering Name
  {0930247d-76f8-4457-a1ee-b4633d7d2047}, !- Design Specification Outdoor Air Object Name
  ,                                       !- Standards Template
  Space Function,                         !- Standards Building Type
  - undefined -;                          !- Standards Space Type

OS:Rendering:Color,
  {2d245aba-2197-4e89-8d94-0ab8b7d48165}, !- Handle
  Space Function - undefined -,           !- Name
  255,                                    !- Rendering Red Value
  255,                                    !- Rendering Green Value
  255;                                    !- Rendering Blue Value

OS:SpaceType,
  {74d79ecf-87d4-4cbb-ba37-86cfde5c20bb}, !- Handle
  Space Function Dining - family space,   !- Name
  ,                                       !- Default Construction Set Name
  {cd6f3ec5-030a-46a6-9c59-34bc28ecf839}, !- Default Schedule Set Name
  {d933a8c7-1af4-4362-a75a-8afdaf47a2e0}, !- Group Rendering Name
  {0a5595da-4f89-48e1-89a6-b5fc4ec65ce6}, !- Design Specification Outdoor Air Object Name
  ,                                       !- Standards Template
  Space Function,                         !- Standards Building Type
  Dining - family space;                  !- Standards Space Type

OS:Rendering:Color,
  {7a9e8539-9cb5-4ca2-908b-238e9d319c5c}, !- Handle
  Space Function Dining - family space,   !- Name
  255,                                    !- Rendering Red Value
  255,                                    !- Rendering Green Value
  255;                                    !- Rendering Blue Value

OS:SpaceType,
  {f72f339a-7251-400d-abf7-c267ec6d3b23}, !- Handle
  Space Function Food preparation,        !- Name
  ,                                       !- Default Construction Set Name
  {e3ec7d2a-cd3e-416e-a6f1-1334e148718c}, !- Default Schedule Set Name
  {b3efbab1-ad6c-4c74-a3f4-b43ea0b827da}, !- Group Rendering Name
  {55db87cd-1b22-4566-82f1-d7e86d043c38}, !- Design Specification Outdoor Air Object Name
  ,                                       !- Standards Template
  Space Function,                         !- Standards Building Type
  Food preparation;                       !- Standards Space Type

OS:Rendering:Color,
  {03141d71-f229-4289-b14b-a6ad922f5827}, !- Handle
  Space Function Food preparation,        !- Name
  255,                                    !- Rendering Red Value
  255,                                    !- Rendering Green Value
  255;                                    !- Rendering Blue Value

OS:SizingPeriod:DesignDay,
  {f69c3b8a-76cf-4eb7-b97b-1c3cbe7e8349}, !- Handle
  Calgary Intl AP Ann Clg .4% Condns DB=>MWB, !- Name
  28.8,                                   !- Maximum Dry-Bulb Temperature {C}
  12.3,                                   !- Daily Dry-Bulb Temperature Range {deltaC}
  88961,                                  !- Barometric Pressure {Pa}
  4.5,                                    !- Wind Speed {m/s}
  160,                                    !- Wind Direction {deg}
  ,                                       !- Sky Clearness
  No,                                     !- Rain Indicator
  No,                                     !- Snow Indicator
  21,                                     !- Day of Month
  7,                                      !- Month
  SummerDesignDay,                        !- Day Type
  No,                                     !- Daylight Saving Time Indicator
  Wetbulb,                                !- Humidity Condition Type
  ,                                       !- Humidity Condition Day Schedule Name
  16,                                     !- Wetbulb or DewPoint at Maximum Dry-Bulb {C}
  ,                                       !- Humidity Ratio at Maximum Dry-Bulb {kgWater/kgDryAir}
  ,                                       !- Enthalpy at Maximum Dry-Bulb {J/kg}
  DefaultMultipliers,                     !- Dry-Bulb Temperature Range Modifier Type
  ,                                       !- Dry-Bulb Temperature Range Modifier Day Schedule Name
  ASHRAETau,                              !- Solar Model Indicator
  ,                                       !- Beam Solar Day Schedule Name
  ,                                       !- Diffuse Solar Day Schedule Name
  0.34,                                   !- ASHRAE Clear Sky Optical Depth for Beam Irradiance {dimensionless}
  2.419;                                  !- ASHRAE Clear Sky Optical Depth for Diffuse Irradiance {dimensionless}

OS:SizingPeriod:DesignDay,
  {922dd69d-07c5-4499-95f6-1ab21b7be873}, !- Handle
  Calgary Intl AP Ann Clg .4% Condns WB=>MDB, !- Name
  25.5,                                   !- Maximum Dry-Bulb Temperature {C}
  12.3,                                   !- Daily Dry-Bulb Temperature Range {deltaC}
  88961,                                  !- Barometric Pressure {Pa}
  4.5,                                    !- Wind Speed {m/s}
  160,                                    !- Wind Direction {deg}
  ,                                       !- Sky Clearness
  No,                                     !- Rain Indicator
  No,                                     !- Snow Indicator
  21,                                     !- Day of Month
  7,                                      !- Month
  SummerDesignDay,                        !- Day Type
  No,                                     !- Daylight Saving Time Indicator
  Wetbulb,                                !- Humidity Condition Type
  ,                                       !- Humidity Condition Day Schedule Name
  17.8,                                   !- Wetbulb or DewPoint at Maximum Dry-Bulb {C}
  ,                                       !- Humidity Ratio at Maximum Dry-Bulb {kgWater/kgDryAir}
  ,                                       !- Enthalpy at Maximum Dry-Bulb {J/kg}
  DefaultMultipliers,                     !- Dry-Bulb Temperature Range Modifier Type
  ,                                       !- Dry-Bulb Temperature Range Modifier Day Schedule Name
  ASHRAETau,                              !- Solar Model Indicator
  ,                                       !- Beam Solar Day Schedule Name
  ,                                       !- Diffuse Solar Day Schedule Name
  0.34,                                   !- ASHRAE Clear Sky Optical Depth for Beam Irradiance {dimensionless}
  2.419;                                  !- ASHRAE Clear Sky Optical Depth for Diffuse Irradiance {dimensionless}

OS:SizingPeriod:DesignDay,
  {bbcf5ea8-dad0-4490-bb5e-8930f2e6198e}, !- Handle
  Calgary Intl AP Ann Htg 99.6% Condns DB, !- Name
  -27.7,                                  !- Maximum Dry-Bulb Temperature {C}
  0,                                      !- Daily Dry-Bulb Temperature Range {deltaC}
  88961,                                  !- Barometric Pressure {Pa}
  2.7,                                    !- Wind Speed {m/s}
  200,                                    !- Wind Direction {deg}
  0,                                      !- Sky Clearness
  No,                                     !- Rain Indicator
  No,                                     !- Snow Indicator
  21,                                     !- Day of Month
  1,                                      !- Month
  WinterDesignDay,                        !- Day Type
  No,                                     !- Daylight Saving Time Indicator
  Wetbulb,                                !- Humidity Condition Type
  ,                                       !- Humidity Condition Day Schedule Name
  -27.7,                                  !- Wetbulb or DewPoint at Maximum Dry-Bulb {C}
  ,                                       !- Humidity Ratio at Maximum Dry-Bulb {kgWater/kgDryAir}
  ,                                       !- Enthalpy at Maximum Dry-Bulb {J/kg}
  DefaultMultipliers,                     !- Dry-Bulb Temperature Range Modifier Type
  ,                                       !- Dry-Bulb Temperature Range Modifier Day Schedule Name
  ASHRAEClearSky;                         !- Solar Model Indicator

OS:ClimateZones,
  {f7933d28-821d-4b82-b19d-43f487f1519d}, !- Handle
  ASHRAE,                                 !- Climate Zone Institution Name 1
  ANSI/ASHRAE Standard 169,               !- Climate Zone Document Name 1
  2006,                                   !- Climate Zone Document Year 1
  7;                                      !- Climate Zone Value 1

OS:Site:GroundTemperature:Shallow,
  {25d905a7-174b-4519-81e0-3f1537a63e91}, !- Handle
  -1.6,                                   !- January Surface Ground Temperature {C}
  -5.4,                                   !- February Surface Ground Temperature {C}
  -6.4,                                   !- March Surface Ground Temperature {C}
  -5.5,                                   !- April Surface Ground Temperature {C}
  -0.4,                                   !- May Surface Ground Temperature {C}
  5.3,                                    !- June Surface Ground Temperature {C}
  10.8,                                   !- July Surface Ground Temperature {C}
  14.7,                                   !- August Surface Ground Temperature {C}
  15.8,                                   !- September Surface Ground Temperature {C}
  14,                                     !- October Surface Ground Temperature {C}
  9.5,                                    !- November Surface Ground Temperature {C}
  4;                                      !- December Surface Ground Temperature {C}

OS:Site:GroundTemperature:Deep,
  {2d247c18-1fef-4c97-92ea-8ed078cc6834}, !- Handle
  4,                                      !- January Deep Ground Temperature {C}
  1.3,                                    !- February Deep Ground Temperature {C}
  -0.4,                                   !- March Deep Ground Temperature {C}
  -0.9,                                   !- April Deep Ground Temperature {C}
  0.1,                                    !- May Deep Ground Temperature {C}
  2.3,                                    !- June Deep Ground Temperature {C}
  5.2,                                    !- July Deep Ground Temperature {C}
  8,                                      !- August Deep Ground Temperature {C}
  9.9,                                    !- September Deep Ground Temperature {C}
  10.3,                                   !- October Deep Ground Temperature {C}
  9.2,                                    !- November Deep Ground Temperature {C}
  7;                                      !- December Deep Ground Temperature {C}

OS:Site:GroundTemperature:FCfactorMethod,
  {c594fbe8-6010-4e80-b731-8bf07dee5a9e}, !- Handle
  5.5,                                    !- January Ground Temperature {C}
  -2,                                     !- February Ground Temperature {C}
  -7.6,                                   !- March Ground Temperature {C}
  -6.3,                                   !- April Ground Temperature {C}
  -6.6,                                   !- May Ground Temperature {C}
  -0.3,                                   !- June Ground Temperature {C}
  4.9,                                    !- July Ground Temperature {C}
  10.2,                                   !- August Ground Temperature {C}
  13.8,                                   !- September Ground Temperature {C}
  17,                                     !- October Ground Temperature {C}
  16.6,                                   !- November Ground Temperature {C}
  11.1;                                   !- December Ground Temperature {C}

OS:AdditionalProperties,
  {201cd45a-9d0c-4927-b754-5a59bdd106cf}, !- Handle
  {a6d9b45b-2723-43c6-8355-1e3d52bed681}, !- Object Name
  space_conditioning_category,            !- Feature Name 1
  String,                                 !- Feature Data Type 1
  unconditioned;                          !- Feature Value 1

OS:AdditionalProperties,
  {6a328f9b-dd9f-424b-84f4-a93ea7aee807}, !- Handle
  {d48cb50c-3a07-4ed6-baac-fe451a3f5495}, !- Object Name
  space_conditioning_category,            !- Feature Name 1
  String,                                 !- Feature Data Type 1
  nonresconditioned;                      !- Feature Value 1

OS:AdditionalProperties,
  {981de4c6-d3cb-4c27-a264-2956eddb2ac6}, !- Handle
  {77d3cfbe-7d30-4aaf-86db-75976a798830}, !- Object Name
  space_conditioning_category,            !- Feature Name 1
  String,                                 !- Feature Data Type 1
  nonresconditioned;                      !- Feature Value 1

OS:AdditionalProperties,
  {2a7c0390-80d0-4f22-a5da-47288c221be7}, !- Handle
  {57a0612b-80fa-4a4f-8704-b192e6d39f92}; !- Object Name

OS:Rendering:Color,
  {bc98f15a-f49c-41ab-ae31-e76633b4dc1a}, !- Handle
  Space Function - undefined - 1,         !- Name
  255,                                    !- Rendering Red Value
  255,                                    !- Rendering Green Value
  255;                                    !- Rendering Blue Value

OS:DesignSpecification:OutdoorAir,
  {0930247d-76f8-4457-a1ee-b4633d7d2047}, !- Handle
  Space Function - undefined - Ventilation, !- Name
  ,                                       !- Outdoor Air Method
  0,                                      !- Outdoor Air Flow per Person {m3/s-person}
  0,                                      !- Outdoor Air Flow per Floor Area {m3/s-m2}
  ,                                       !- Outdoor Air Flow Rate {m3/s}
  0,                                      !- Outdoor Air Flow Air Changes per Hour {1/hr}
  ;                                       !- Outdoor Air Flow Rate Fraction Schedule Name

OS:DefaultScheduleSet,
  {13805a41-eb64-4e0b-b43f-63c6e78ee2f6}, !- Handle
  Space Function - undefined - Schedule Set, !- Name
  ,                                       !- Hours of Operation Schedule Name
  ,                                       !- Number of People Schedule Name
  ,                                       !- People Activity Level Schedule Name
  ,                                       !- Lighting Schedule Name
  ,                                       !- Electric Equipment Schedule Name
  ,                                       !- Gas Equipment Schedule Name
  ,                                       !- Hot Water Equipment Schedule Name
  ,                                       !- Infiltration Schedule Name
  ,                                       !- Steam Equipment Schedule Name
  ;                                       !- Other Equipment Schedule Name

OS:ThermostatSetpoint:DualSetpoint,
  {fb827419-f177-491b-9abd-eb89fd158c73}, !- Handle
  Space Function - undefined - Thermostat; !- Name

OS:Rendering:Color,
  {59a87b87-cce0-4a5d-a808-8c4a9b394ce8}, !- Handle
  Space Function Dining - family space 1, !- Name
  255,                                    !- Rendering Red Value
  255,                                    !- Rendering Green Value
  255;                                    !- Rendering Blue Value

OS:People:Definition,
  {d009c579-773e-412b-9720-39e0af6ab568}, !- Handle
  Space Function Dining - family space People Definition, !- Name
  People/Area,                            !- Number of People Calculation Method
  ,                                       !- Number of People {people}
  0.0999967277712333,                     !- People per Space Floor Area {person/m2}
  ,                                       !- Space Floor Area per Person {m2/person}
  0.3;                                    !- Fraction Radiant

OS:People,
  {151841be-ee55-4a6b-8eef-f834996d13db}, !- Handle
  Space Function Dining - family space People, !- Name
  {d009c579-773e-412b-9720-39e0af6ab568}, !- People Definition Name
  {74d79ecf-87d4-4cbb-ba37-86cfde5c20bb}, !- Space or SpaceType Name
  ,                                       !- Number of People Schedule Name
  ,                                       !- Activity Level Schedule Name
  ,                                       !- Surface Name/Angle Factor List Name
  {678fba86-0150-41b5-9a97-d1ccb45de262}, !- Work Efficiency Schedule Name
  {fa2ccfcb-78bd-47f5-b931-f471bc3a9d98}, !- Clothing Insulation Schedule Name
  {dcb567ce-5485-4acc-a632-f76ad30ab7b5}, !- Air Velocity Schedule Name
  1;                                      !- Multiplier

OS:Schedule:Ruleset,
  {fa2ccfcb-78bd-47f5-b931-f471bc3a9d98}, !- Handle
  Clothing Schedule,                      !- Name
  {a8468174-d368-4eb1-ae04-64e895290ddd}, !- Schedule Type Limits Name
  {74089481-7682-44cc-8586-f907d690aa80}; !- Default Day Schedule Name

OS:Schedule:Day,
  {74089481-7682-44cc-8586-f907d690aa80}, !- Handle
  Clothing Schedule Default Winter Clothes, !- Name
  {a8468174-d368-4eb1-ae04-64e895290ddd}, !- Schedule Type Limits Name
  ,                                       !- Interpolate to Timestep
  24,                                     !- Hour 1
  0,                                      !- Minute 1
  1;                                      !- Value Until Time 1

OS:Schedule:Rule,
  {67f2d184-da60-4d07-befd-993430264cfb}, !- Handle
  Schedule Rule 1,                        !- Name
  {fa2ccfcb-78bd-47f5-b931-f471bc3a9d98}, !- Schedule Ruleset Name
  0,                                      !- Rule Order
  {94cb1a9a-a7b6-4fa3-b6ac-8cb678dd5507}, !- Day Schedule Name
  ,                                       !- Apply Sunday
  ,                                       !- Apply Monday
  ,                                       !- Apply Tuesday
  ,                                       !- Apply Wednesday
  ,                                       !- Apply Thursday
  ,                                       !- Apply Friday
  ,                                       !- Apply Saturday
  DateRange,                              !- Date Specification Type
  5,                                      !- Start Month
  1,                                      !- Start Day
  9,                                      !- End Month
  30;                                     !- End Day

OS:Schedule:Day,
  {94cb1a9a-a7b6-4fa3-b6ac-8cb678dd5507}, !- Handle
  Clothing Schedule Summer Clothes,       !- Name
  {a8468174-d368-4eb1-ae04-64e895290ddd}, !- Schedule Type Limits Name
  ,                                       !- Interpolate to Timestep
  24,                                     !- Hour 1
  0,                                      !- Minute 1
  0.5;                                    !- Value Until Time 1

OS:ScheduleTypeLimits,
  {a8468174-d368-4eb1-ae04-64e895290ddd}, !- Handle
  ClothingInsulation,                     !- Name
  0,                                      !- Lower Limit Value
  ,                                       !- Upper Limit Value
  Continuous,                             !- Numeric Type
  ClothingInsulation;                     !- Unit Type

OS:Schedule:Ruleset,
  {dcb567ce-5485-4acc-a632-f76ad30ab7b5}, !- Handle
  Air Velocity Schedule,                  !- Name
  {106eeaac-3be8-4da7-b308-4cde8ab17810}, !- Schedule Type Limits Name
  {b7b3edf6-1fc9-445d-9ba8-afe168e7691d}; !- Default Day Schedule Name

OS:Schedule:Day,
  {b7b3edf6-1fc9-445d-9ba8-afe168e7691d}, !- Handle
  Air Velocity Schedule Default,          !- Name
  {106eeaac-3be8-4da7-b308-4cde8ab17810}, !- Schedule Type Limits Name
  ,                                       !- Interpolate to Timestep
  24,                                     !- Hour 1
  0,                                      !- Minute 1
  0.2;                                    !- Value Until Time 1

OS:ScheduleTypeLimits,
  {106eeaac-3be8-4da7-b308-4cde8ab17810}, !- Handle
  Velocity,                               !- Name
  0,                                      !- Lower Limit Value
  ,                                       !- Upper Limit Value
  Continuous,                             !- Numeric Type
  Velocity;                               !- Unit Type

OS:Schedule:Ruleset,
  {678fba86-0150-41b5-9a97-d1ccb45de262}, !- Handle
  Work Efficiency Schedule,               !- Name
  {447f2422-083a-46b7-88c1-d6095c527480}, !- Schedule Type Limits Name
  {0277504b-6fc5-43a4-a853-864e49d9891f}; !- Default Day Schedule Name

OS:Schedule:Day,
  {0277504b-6fc5-43a4-a853-864e49d9891f}, !- Handle
  Work Efficiency Schedule Default,       !- Name
  {447f2422-083a-46b7-88c1-d6095c527480}, !- Schedule Type Limits Name
  ,                                       !- Interpolate to Timestep
  24,                                     !- Hour 1
  0,                                      !- Minute 1
  0;                                      !- Value Until Time 1

OS:ScheduleTypeLimits,
  {447f2422-083a-46b7-88c1-d6095c527480}, !- Handle
  Fractional,                             !- Name
  0,                                      !- Lower Limit Value
  1,                                      !- Upper Limit Value
  Continuous;                             !- Numeric Type

OS:Lights:Definition,
  {61b9b88d-1118-4bf5-98fc-ce373400eadf}, !- Handle
  Space Function Dining - family space Lights Definition, !- Name
  Watts/Area,                             !- Design Level Calculation Method
  ,                                       !- Lighting Level {W}
  9.59992009949298,                       !- Watts per Space Floor Area {W/m2}
  ,                                       !- Watts per Person {W/person}
  0.5,                                    !- Fraction Radiant
  0.2;                                    !- Fraction Visible

OS:Lights,
  {46b9a4eb-8247-4fa6-bbc7-4c0b2039be47}, !- Handle
  Space Function Dining - family space Lights, !- Name
  {61b9b88d-1118-4bf5-98fc-ce373400eadf}, !- Lights Definition Name
  {74d79ecf-87d4-4cbb-ba37-86cfde5c20bb}, !- Space or SpaceType Name
  ,                                       !- Schedule Name
  1,                                      !- Fraction Replaceable
  ,                                       !- Multiplier
  General;                                !- End-Use Subcategory

OS:ElectricEquipment:Definition,
  {84a93475-0beb-4031-aa4a-4cd1fb128d44}, !- Handle
  Space Function Dining - family space Elec Equip Definition, !- Name
  Watts/Area,                             !- Design Level Calculation Method
  ,                                       !- Design Level {W}
  0.999991679497248,                      !- Watts per Space Floor Area {W/m2}
  ,                                       !- Watts per Person {W/person}
  ,                                       !- Fraction Latent
  0.5;                                    !- Fraction Radiant

OS:ElectricEquipment,
  {ba5e88c5-260a-4c67-adc1-59f38da6d09d}, !- Handle
  Space Function Dining - family space Elec Equip, !- Name
  {84a93475-0beb-4031-aa4a-4cd1fb128d44}, !- Electric Equipment Definition Name
  {74d79ecf-87d4-4cbb-ba37-86cfde5c20bb}, !- Space or SpaceType Name
  ,                                       !- Schedule Name
  ,                                       !- Multiplier
  General;                                !- End-Use Subcategory

OS:DesignSpecification:OutdoorAir,
  {0a5595da-4f89-48e1-89a6-b5fc4ec65ce6}, !- Handle
  Space Function Dining - family space Ventilation, !- Name
  Sum,                                    !- Outdoor Air Method
  0.071122327285253,                      !- Outdoor Air Flow per Person {m3/s-person}
  ,                                       !- Outdoor Air Flow per Floor Area {m3/s-m2}
  ,                                       !- Outdoor Air Flow Rate {m3/s}
  ,                                       !- Outdoor Air Flow Air Changes per Hour {1/hr}
  ;                                       !- Outdoor Air Flow Rate Fraction Schedule Name

OS:DefaultScheduleSet,
  {cd6f3ec5-030a-46a6-9c59-34bc28ecf839}, !- Handle
  Space Function Dining - family space Schedule Set, !- Name
  ,                                       !- Hours of Operation Schedule Name
  {a7162122-212b-4773-b9a7-7e3f0537e5cb}, !- Number of People Schedule Name
  {38c27d9a-27a6-4544-a5c2-3f9591c2aea7}, !- People Activity Level Schedule Name
  {bb2eabab-b601-4f4e-bf15-cbfd86ea6258}, !- Lighting Schedule Name
  {22fadc62-9774-4ba9-bcdd-cf1d28d4df84}, !- Electric Equipment Schedule Name
  ,                                       !- Gas Equipment Schedule Name
  ,                                       !- Hot Water Equipment Schedule Name
  ,                                       !- Infiltration Schedule Name
  ,                                       !- Steam Equipment Schedule Name
  ;                                       !- Other Equipment Schedule Name

OS:Schedule:Ruleset,
  {a7162122-212b-4773-b9a7-7e3f0537e5cb}, !- Handle
  NECB-B-Occupancy,                       !- Name
  {447f2422-083a-46b7-88c1-d6095c527480}, !- Schedule Type Limits Name
  {1dd916b9-c0c5-44bd-8378-baabd3459856}; !- Default Day Schedule Name

OS:Schedule:Day,
  {1dd916b9-c0c5-44bd-8378-baabd3459856}, !- Handle
  NECB-B-Occupancy Default,               !- Name
  {447f2422-083a-46b7-88c1-d6095c527480}, !- Schedule Type Limits Name
  No,                                     !- Interpolate to Timestep
  1,                                      !- Hour 1
  0,                                      !- Minute 1
  0.3,                                    !- Value Until Time 1
  2,                                      !- Hour 2
  0,                                      !- Minute 2
  0.1,                                    !- Value Until Time 2
  9,                                      !- Hour 3
  0,                                      !- Minute 3
  0,                                      !- Value Until Time 3
  10,                                     !- Hour 4
  0,                                      !- Minute 4
  0.1,                                    !- Value Until Time 4
  11,                                     !- Hour 5
  0,                                      !- Minute 5
  0.2,                                    !- Value Until Time 5
  12,                                     !- Hour 6
  0,                                      !- Minute 6
  0.5,                                    !- Value Until Time 6
  13,                                     !- Hour 7
  0,                                      !- Minute 7
  0.9,                                    !- Value Until Time 7
  14,                                     !- Hour 8
  0,                                      !- Minute 8
  0.8,                                    !- Value Until Time 8
  15,                                     !- Hour 9
  0,                                      !- Minute 9
  0.5,                                    !- Value Until Time 9
  17,                                     !- Hour 10
  0,                                      !- Minute 10
  0.2,                                    !- Value Until Time 10
  18,                                     !- Hour 11
  0,                                      !- Minute 11
  0.3,                                    !- Value Until Time 11
  19,                                     !- Hour 12
  0,                                      !- Minute 12
  0.6,                                    !- Value Until Time 12
  22,                                     !- Hour 13
  0,                                      !- Minute 13
  0.9,                                    !- Value Until Time 13
  23,                                     !- Hour 14
  0,                                      !- Minute 14
  0.6,                                    !- Value Until Time 14
  24,                                     !- Hour 15
  0,                                      !- Minute 15
  0.4;                                    !- Value Until Time 15

OS:Schedule:Rule,
  {78eca908-b21a-4332-a44b-95d799a1e58e}, !- Handle
  Schedule Rule 2,                        !- Name
  {a7162122-212b-4773-b9a7-7e3f0537e5cb}, !- Schedule Ruleset Name
  2,                                      !- Rule Order
  {a6751425-5f79-41fa-a564-ad359cbff8e3}, !- Day Schedule Name
  ,                                       !- Apply Sunday
  Yes,                                    !- Apply Monday
  Yes,                                    !- Apply Tuesday
  Yes,                                    !- Apply Wednesday
  Yes,                                    !- Apply Thursday
  Yes,                                    !- Apply Friday
  ,                                       !- Apply Saturday
  DateRange,                              !- Date Specification Type
  1,                                      !- Start Month
  1,                                      !- Start Day
  12,                                     !- End Month
  31;                                     !- End Day

OS:Schedule:Day,
  {a6751425-5f79-41fa-a564-ad359cbff8e3}, !- Handle
  NECB-B-Occupancy Default|Wkdy Day,      !- Name
  {447f2422-083a-46b7-88c1-d6095c527480}, !- Schedule Type Limits Name
  No,                                     !- Interpolate to Timestep
  1,                                      !- Hour 1
  0,                                      !- Minute 1
  0.3,                                    !- Value Until Time 1
  2,                                      !- Hour 2
  0,                                      !- Minute 2
  0.1,                                    !- Value Until Time 2
  9,                                      !- Hour 3
  0,                                      !- Minute 3
  0,                                      !- Value Until Time 3
  10,                                     !- Hour 4
  0,                                      !- Minute 4
  0.1,                                    !- Value Until Time 4
  11,                                     !- Hour 5
  0,                                      !- Minute 5
  0.2,                                    !- Value Until Time 5
  12,                                     !- Hour 6
  0,                                      !- Minute 6
  0.5,                                    !- Value Until Time 6
  13,                                     !- Hour 7
  0,                                      !- Minute 7
  0.9,                                    !- Value Until Time 7
  14,                                     !- Hour 8
  0,                                      !- Minute 8
  0.8,                                    !- Value Until Time 8
  15,                                     !- Hour 9
  0,                                      !- Minute 9
  0.5,                                    !- Value Until Time 9
  17,                                     !- Hour 10
  0,                                      !- Minute 10
  0.2,                                    !- Value Until Time 10
  18,                                     !- Hour 11
  0,                                      !- Minute 11
  0.3,                                    !- Value Until Time 11
  19,                                     !- Hour 12
  0,                                      !- Minute 12
  0.6,                                    !- Value Until Time 12
  22,                                     !- Hour 13
  0,                                      !- Minute 13
  0.9,                                    !- Value Until Time 13
  23,                                     !- Hour 14
  0,                                      !- Minute 14
  0.6,                                    !- Value Until Time 14
  24,                                     !- Hour 15
  0,                                      !- Minute 15
  0.4;                                    !- Value Until Time 15

OS:Schedule:Rule,
  {034c5eda-e421-4ca3-90fe-42dfd2e8cfda}, !- Handle
  Schedule Rule 3,                        !- Name
  {a7162122-212b-4773-b9a7-7e3f0537e5cb}, !- Schedule Ruleset Name
  1,                                      !- Rule Order
  {4bfc8eb5-8e06-4856-86d7-716d02d75082}, !- Day Schedule Name
  ,                                       !- Apply Sunday
  ,                                       !- Apply Monday
  ,                                       !- Apply Tuesday
  ,                                       !- Apply Wednesday
  ,                                       !- Apply Thursday
  ,                                       !- Apply Friday
  Yes,                                    !- Apply Saturday
  DateRange,                              !- Date Specification Type
  1,                                      !- Start Month
  1,                                      !- Start Day
  12,                                     !- End Month
  31;                                     !- End Day

OS:Schedule:Day,
  {4bfc8eb5-8e06-4856-86d7-716d02d75082}, !- Handle
  NECB-B-Occupancy Sat Day,               !- Name
  {447f2422-083a-46b7-88c1-d6095c527480}, !- Schedule Type Limits Name
  No,                                     !- Interpolate to Timestep
  1,                                      !- Hour 1
  0,                                      !- Minute 1
  0.5,                                    !- Value Until Time 1
  2,                                      !- Hour 2
  0,                                      !- Minute 2
  0.3,                                    !- Value Until Time 2
  9,                                      !- Hour 3
  0,                                      !- Minute 3
  0,                                      !- Value Until Time 3
  10,                                     !- Hour 4
  0,                                      !- Minute 4
  0.1,                                    !- Value Until Time 4
  11,                                     !- Hour 5
  0,                                      !- Minute 5
  0.2,                                    !- Value Until Time 5
  12,                                     !- Hour 6
  0,                                      !- Minute 6
  0.5,                                    !- Value Until Time 6
  13,                                     !- Hour 7
  0,                                      !- Minute 7
  0.9,                                    !- Value Until Time 7
  14,                                     !- Hour 8
  0,                                      !- Minute 8
  0.8,                                    !- Value Until Time 8
  15,                                     !- Hour 9
  0,                                      !- Minute 9
  0.5,                                    !- Value Until Time 9
  17,                                     !- Hour 10
  0,                                      !- Minute 10
  0.2,                                    !- Value Until Time 10
  18,                                     !- Hour 11
  0,                                      !- Minute 11
  0.3,                                    !- Value Until Time 11
  19,                                     !- Hour 12
  0,                                      !- Minute 12
  0.6,                                    !- Value Until Time 12
  22,                                     !- Hour 13
  0,                                      !- Minute 13
  0.9,                                    !- Value Until Time 13
  24,                                     !- Hour 14
  0,                                      !- Minute 14
  0.6;                                    !- Value Until Time 14

OS:Schedule:Rule,
  {12a5cb39-6cc7-4c89-900d-b145c9f74b99}, !- Handle
  Schedule Rule 4,                        !- Name
  {a7162122-212b-4773-b9a7-7e3f0537e5cb}, !- Schedule Ruleset Name
  0,                                      !- Rule Order
  {0ebe50b4-10e3-4757-92ee-137896bae979}, !- Day Schedule Name
  Yes,                                    !- Apply Sunday
  ,                                       !- Apply Monday
  ,                                       !- Apply Tuesday
  ,                                       !- Apply Wednesday
  ,                                       !- Apply Thursday
  ,                                       !- Apply Friday
  ,                                       !- Apply Saturday
  DateRange,                              !- Date Specification Type
  1,                                      !- Start Month
  1,                                      !- Start Day
  12,                                     !- End Month
  31;                                     !- End Day

OS:Schedule:Day,
  {0ebe50b4-10e3-4757-92ee-137896bae979}, !- Handle
  NECB-B-Occupancy Sun|Hol Day,           !- Name
  {447f2422-083a-46b7-88c1-d6095c527480}, !- Schedule Type Limits Name
  No,                                     !- Interpolate to Timestep
  1,                                      !- Hour 1
  0,                                      !- Minute 1
  0.1,                                    !- Value Until Time 1
  2,                                      !- Hour 2
  0,                                      !- Minute 2
  0.3,                                    !- Value Until Time 2
  10,                                     !- Hour 3
  0,                                      !- Minute 3
  0,                                      !- Value Until Time 3
  11,                                     !- Hour 4
  0,                                      !- Minute 4
  0.1,                                    !- Value Until Time 4
  12,                                     !- Hour 5
  0,                                      !- Minute 5
  0.4,                                    !- Value Until Time 5
  14,                                     !- Hour 6
  0,                                      !- Minute 6
  0.5,                                    !- Value Until Time 6
  15,                                     !- Hour 7
  0,                                      !- Minute 7
  0.4,                                    !- Value Until Time 7
  18,                                     !- Hour 8
  0,                                      !- Minute 8
  0.2,                                    !- Value Until Time 8
  19,                                     !- Hour 9
  0,                                      !- Minute 9
  0.5,                                    !- Value Until Time 9
  21,                                     !- Hour 10
  0,                                      !- Minute 10
  0.7,                                    !- Value Until Time 10
  22,                                     !- Hour 11
  0,                                      !- Minute 11
  0.5,                                    !- Value Until Time 11
  23,                                     !- Hour 12
  0,                                      !- Minute 12
  0.3,                                    !- Value Until Time 12
  24,                                     !- Hour 13
  0,                                      !- Minute 13
  0.1;                                    !- Value Until Time 13

OS:Schedule:Ruleset,
  {38c27d9a-27a6-4544-a5c2-3f9591c2aea7}, !- Handle
  NECB-Activity,                          !- Name
  {b2016940-6545-4783-b53d-d8f89697432d}, !- Schedule Type Limits Name
  {c194b912-9c83-4f1e-86f9-853e944412d3}, !- Default Day Schedule Name
  {510a193a-ce05-41e2-8d18-e63599693fb0}, !- Summer Design Day Schedule Name
  {0aeb0bbe-0af3-40e9-98d1-120fe29ed189}; !- Winter Design Day Schedule Name

OS:Schedule:Day,
  {c194b912-9c83-4f1e-86f9-853e944412d3}, !- Handle
  NECB-Activity Default,                  !- Name
  {b2016940-6545-4783-b53d-d8f89697432d}, !- Schedule Type Limits Name
  No,                                     !- Interpolate to Timestep
  24,                                     !- Hour 1
  0,                                      !- Minute 1
  130;                                    !- Value Until Time 1

OS:Schedule:Day,
  {9cc59003-0c83-4f83-a9c1-d6901e7702f3}, !- Handle
  Schedule Day 1,                         !- Name
  ,                                       !- Schedule Type Limits Name
  ,                                       !- Interpolate to Timestep
  24,                                     !- Hour 1
  0,                                      !- Minute 1
  0;                                      !- Value Until Time 1

OS:Schedule:Day,
  {0aeb0bbe-0af3-40e9-98d1-120fe29ed189}, !- Handle
  NECB-Activity Winter Design Day,        !- Name
  {b2016940-6545-4783-b53d-d8f89697432d}, !- Schedule Type Limits Name
  No,                                     !- Interpolate to Timestep
  24,                                     !- Hour 1
  0,                                      !- Minute 1
  130;                                    !- Value Until Time 1

OS:Schedule:Day,
  {57772309-1c0f-4f6c-b49b-f4045e762cd9}, !- Handle
  Schedule Day 2,                         !- Name
  ,                                       !- Schedule Type Limits Name
  ,                                       !- Interpolate to Timestep
  24,                                     !- Hour 1
  0,                                      !- Minute 1
  0;                                      !- Value Until Time 1

OS:Schedule:Day,
  {510a193a-ce05-41e2-8d18-e63599693fb0}, !- Handle
  NECB-Activity Summer Design Day,        !- Name
  {b2016940-6545-4783-b53d-d8f89697432d}, !- Schedule Type Limits Name
  No,                                     !- Interpolate to Timestep
  24,                                     !- Hour 1
  0,                                      !- Minute 1
  130;                                    !- Value Until Time 1

OS:ScheduleTypeLimits,
  {b2016940-6545-4783-b53d-d8f89697432d}, !- Handle
  ActivityLevel,                          !- Name
  0,                                      !- Lower Limit Value
  ,                                       !- Upper Limit Value
  Continuous,                             !- Numeric Type
  ActivityLevel;                          !- Unit Type

OS:Schedule:Ruleset,
  {bb2eabab-b601-4f4e-bf15-cbfd86ea6258}, !- Handle
  NECB-B-Lighting,                        !- Name
  {447f2422-083a-46b7-88c1-d6095c527480}, !- Schedule Type Limits Name
  {001976ff-5795-4e31-8f70-bf51473b72b6}; !- Default Day Schedule Name

OS:Schedule:Day,
  {001976ff-5795-4e31-8f70-bf51473b72b6}, !- Handle
  NECB-B-Lighting Default,                !- Name
  {447f2422-083a-46b7-88c1-d6095c527480}, !- Schedule Type Limits Name
  No,                                     !- Interpolate to Timestep
  1,                                      !- Hour 1
  0,                                      !- Minute 1
  0.9,                                    !- Value Until Time 1
  2,                                      !- Hour 2
  0,                                      !- Minute 2
  0.5,                                    !- Value Until Time 2
  9,                                      !- Hour 3
  0,                                      !- Minute 3
  0.1,                                    !- Value Until Time 3
  10,                                     !- Hour 4
  0,                                      !- Minute 4
  0.5,                                    !- Value Until Time 4
  11,                                     !- Hour 5
  0,                                      !- Minute 5
  0.7,                                    !- Value Until Time 5
  24,                                     !- Hour 6
  0,                                      !- Minute 6
  0.9;                                    !- Value Until Time 6

OS:Schedule:Rule,
  {f175e357-5a42-4f82-b27d-587aeb1411e0}, !- Handle
  Schedule Rule 5,                        !- Name
  {bb2eabab-b601-4f4e-bf15-cbfd86ea6258}, !- Schedule Ruleset Name
  2,                                      !- Rule Order
  {67ab30ef-66b9-4ed3-8b46-cdeb1d517c06}, !- Day Schedule Name
  ,                                       !- Apply Sunday
  Yes,                                    !- Apply Monday
  Yes,                                    !- Apply Tuesday
  Yes,                                    !- Apply Wednesday
  Yes,                                    !- Apply Thursday
  Yes,                                    !- Apply Friday
  ,                                       !- Apply Saturday
  DateRange,                              !- Date Specification Type
  1,                                      !- Start Month
  1,                                      !- Start Day
  12,                                     !- End Month
  31;                                     !- End Day

OS:Schedule:Day,
  {67ab30ef-66b9-4ed3-8b46-cdeb1d517c06}, !- Handle
  NECB-B-Lighting Default|Wkdy Day,       !- Name
  {447f2422-083a-46b7-88c1-d6095c527480}, !- Schedule Type Limits Name
  No,                                     !- Interpolate to Timestep
  1,                                      !- Hour 1
  0,                                      !- Minute 1
  0.9,                                    !- Value Until Time 1
  2,                                      !- Hour 2
  0,                                      !- Minute 2
  0.5,                                    !- Value Until Time 2
  9,                                      !- Hour 3
  0,                                      !- Minute 3
  0.1,                                    !- Value Until Time 3
  10,                                     !- Hour 4
  0,                                      !- Minute 4
  0.5,                                    !- Value Until Time 4
  11,                                     !- Hour 5
  0,                                      !- Minute 5
  0.7,                                    !- Value Until Time 5
  24,                                     !- Hour 6
  0,                                      !- Minute 6
  0.9;                                    !- Value Until Time 6

OS:Schedule:Rule,
  {f3b17db4-c65b-4e92-b60c-9cefd0b01424}, !- Handle
  Schedule Rule 6,                        !- Name
  {bb2eabab-b601-4f4e-bf15-cbfd86ea6258}, !- Schedule Ruleset Name
  1,                                      !- Rule Order
  {b1e1503d-9a27-4580-8993-93356bba3cc8}, !- Day Schedule Name
  ,                                       !- Apply Sunday
  ,                                       !- Apply Monday
  ,                                       !- Apply Tuesday
  ,                                       !- Apply Wednesday
  ,                                       !- Apply Thursday
  ,                                       !- Apply Friday
  Yes,                                    !- Apply Saturday
  DateRange,                              !- Date Specification Type
  1,                                      !- Start Month
  1,                                      !- Start Day
  12,                                     !- End Month
  31;                                     !- End Day

OS:Schedule:Day,
  {b1e1503d-9a27-4580-8993-93356bba3cc8}, !- Handle
  NECB-B-Lighting Sat Day,                !- Name
  {447f2422-083a-46b7-88c1-d6095c527480}, !- Schedule Type Limits Name
  No,                                     !- Interpolate to Timestep
  1,                                      !- Hour 1
  0,                                      !- Minute 1
  0.9,                                    !- Value Until Time 1
  2,                                      !- Hour 2
  0,                                      !- Minute 2
  0.5,                                    !- Value Until Time 2
  9,                                      !- Hour 3
  0,                                      !- Minute 3
  0.1,                                    !- Value Until Time 3
  10,                                     !- Hour 4
  0,                                      !- Minute 4
  0.5,                                    !- Value Until Time 4
  11,                                     !- Hour 5
  0,                                      !- Minute 5
  0.7,                                    !- Value Until Time 5
  24,                                     !- Hour 6
  0,                                      !- Minute 6
  0.9;                                    !- Value Until Time 6

OS:Schedule:Rule,
  {4da059fb-6114-47e2-80b3-842918ee451a}, !- Handle
  Schedule Rule 7,                        !- Name
  {bb2eabab-b601-4f4e-bf15-cbfd86ea6258}, !- Schedule Ruleset Name
  0,                                      !- Rule Order
  {a035ed98-94b8-4f94-8e31-2bc9c60a9f0e}, !- Day Schedule Name
  Yes,                                    !- Apply Sunday
  ,                                       !- Apply Monday
  ,                                       !- Apply Tuesday
  ,                                       !- Apply Wednesday
  ,                                       !- Apply Thursday
  ,                                       !- Apply Friday
  ,                                       !- Apply Saturday
  DateRange,                              !- Date Specification Type
  1,                                      !- Start Month
  1,                                      !- Start Day
  12,                                     !- End Month
  31;                                     !- End Day

OS:Schedule:Day,
  {a035ed98-94b8-4f94-8e31-2bc9c60a9f0e}, !- Handle
  NECB-B-Lighting Sun|Hol Day,            !- Name
  {447f2422-083a-46b7-88c1-d6095c527480}, !- Schedule Type Limits Name
  No,                                     !- Interpolate to Timestep
  2,                                      !- Hour 1
  0,                                      !- Minute 1
  0.5,                                    !- Value Until Time 1
  10,                                     !- Hour 2
  0,                                      !- Minute 2
  0.1,                                    !- Value Until Time 2
  11,                                     !- Hour 3
  0,                                      !- Minute 3
  0.5,                                    !- Value Until Time 3
  23,                                     !- Hour 4
  0,                                      !- Minute 4
  0.9,                                    !- Value Until Time 4
  24,                                     !- Hour 5
  0,                                      !- Minute 5
  0.5;                                    !- Value Until Time 5

OS:Schedule:Ruleset,
  {22fadc62-9774-4ba9-bcdd-cf1d28d4df84}, !- Handle
  NECB-B-Electric-Equipment,              !- Name
  {447f2422-083a-46b7-88c1-d6095c527480}, !- Schedule Type Limits Name
  {677aac3b-9efb-4c64-8604-b4aceccf7432}; !- Default Day Schedule Name

OS:Schedule:Day,
  {677aac3b-9efb-4c64-8604-b4aceccf7432}, !- Handle
  NECB-B-Electric-Equipment Default,      !- Name
  {447f2422-083a-46b7-88c1-d6095c527480}, !- Schedule Type Limits Name
  No,                                     !- Interpolate to Timestep
[...]

OS:ModelObjectList,
  {7210621f-3ce8-490a-a543-23fa8f0a3dec}, !- Handle
  Availability Manager Night Cycle 1 Control Zone List; !- Name

OS:ModelObjectList,
  {c4288a76-4ecd-4722-9ebc-c50565a158dd}, !- Handle
  Availability Manager Night Cycle 1 Cooling Control Zone List; !- Name

OS:ModelObjectList,
  {cbc8fd41-98a3-4352-af27-2d691510bd72}, !- Handle
  Availability Manager Night Cycle 1 Heating Control Zone List; !- Name

OS:ModelObjectList,
  {90e7b05a-d26a-4302-b4db-24d42d077ae1}, !- Handle
  Availability Manager Night Cycle 1 Heating Zone Fans Only Zone List; !- Name

OS:Schedule:Ruleset,
  {887e85de-c128-4429-9fb0-3c821ba3d16a}, !- Handle
  sys_3|mixed|shr>none|sc>dx|sh>c-e|ssf>cv|zh>b-hw|zc>none|srf>none| Occ Sch, !- Name
  {447f2422-083a-46b7-88c1-d6095c527480}, !- Schedule Type Limits Name
  {e008497d-2606-4127-bf46-51dd10fb1d8e}, !- Default Day Schedule Name
  {8b44a6cf-02c5-4266-a624-09f1ec8a4366}, !- Summer Design Day Schedule Name
  {c5b0ffbe-c8bd-40da-8101-8a3376fbbda5}; !- Winter Design Day Schedule Name

OS:Schedule:Day,
  {e008497d-2606-4127-bf46-51dd10fb1d8e}, !- Handle
  sys_3|mixed|shr>none|sc>dx|sh>c-e|ssf>cv|zh>b-hw|zc>none|srf>none| Occ Sch Default, !- Name
  {447f2422-083a-46b7-88c1-d6095c527480}, !- Schedule Type Limits Name
  ,                                       !- Interpolate to Timestep
  1,                                      !- Hour 1
  0,                                      !- Minute 1
  1,                                      !- Value Until Time 1
  10,                                     !- Hour 2
  0,                                      !- Minute 2
  0,                                      !- Value Until Time 2
  24,                                     !- Hour 3
  0,                                      !- Minute 3
  1;                                      !- Value Until Time 3

OS:AdditionalProperties,
  {ef72fac3-3efa-402e-9377-7cb2fd29263c}, !- Handle
  {887e85de-c128-4429-9fb0-3c821ba3d16a}, !- Object Name
  max_occ_in_spaces,                      !- Feature Name 1
  Double,                                 !- Feature Data Type 1
  37.173590704266502,                     !- Feature Value 1
  number_of_spaces_included,              !- Feature Name 2
  Integer,                                !- Feature Data Type 2
  1,                                      !- Feature Value 2
  date_parent_object_last_edited,         !- Feature Name 3
  String,                                 !- Feature Data Type 3
  2025-10-15 17:31:05 UTC,                !- Feature Value 3
  date_parent_object_created,             !- Feature Name 4
  String,                                 !- Feature Data Type 4
  2025-10-15 17:31:05 UTC;                !- Feature Value 4

OS:Schedule:Day,
  {c5b0ffbe-c8bd-40da-8101-8a3376fbbda5}, !- Handle
  sys_3|mixed|shr>none|sc>dx|sh>c-e|ssf>cv|zh>b-hw|zc>none|srf>none| Occ Sch Winter Design Day, !- Name
  {447f2422-083a-46b7-88c1-d6095c527480}, !- Schedule Type Limits Name
  ,                                       !- Interpolate to Timestep
  24,                                     !- Hour 1
  0,                                      !- Minute 1
  1;                                      !- Value Until Time 1

OS:Schedule:Day,
  {8b44a6cf-02c5-4266-a624-09f1ec8a4366}, !- Handle
  sys_3|mixed|shr>none|sc>dx|sh>c-e|ssf>cv|zh>b-hw|zc>none|srf>none| Occ Sch Summer Design Day, !- Name
  {447f2422-083a-46b7-88c1-d6095c527480}, !- Schedule Type Limits Name
  ,                                       !- Interpolate to Timestep
  24,                                     !- Hour 1
  0,                                      !- Minute 1
  1;                                      !- Value Until Time 1

OS:Schedule:Rule,
  {b933fc40-bd1a-40b4-a781-234acf065a52}, !- Handle
  Schedule Rule 20,                       !- Name
  {887e85de-c128-4429-9fb0-3c821ba3d16a}, !- Schedule Ruleset Name
  1,                                      !- Rule Order
  {a9b8b665-45f9-4942-80c2-52342120dbe0}, !- Day Schedule Name
  ,                                       !- Apply Sunday
  ,                                       !- Apply Monday
  ,                                       !- Apply Tuesday
  ,                                       !- Apply Wednesday
  ,                                       !- Apply Thursday
  ,                                       !- Apply Friday
  Yes,                                    !- Apply Saturday
  DateRange,                              !- Date Specification Type
  1,                                      !- Start Month
  7,                                      !- Start Day
  12,                                     !- End Month
  30;                                     !- End Day

OS:Schedule:Day,
  {a9b8b665-45f9-4942-80c2-52342120dbe0}, !- Handle
  Schedule Day 5,                         !- Name
  {447f2422-083a-46b7-88c1-d6095c527480}, !- Schedule Type Limits Name
  ,                                       !- Interpolate to Timestep
  2,                                      !- Hour 1
  0,                                      !- Minute 1
  1,                                      !- Value Until Time 1
  10,                                     !- Hour 2
  0,                                      !- Minute 2
  0,                                      !- Value Until Time 2
  24,                                     !- Hour 3
  0,                                      !- Minute 3
  1;                                      !- Value Until Time 3

OS:Schedule:Rule,
  {db35dc10-b226-44c8-bec9-9eaab089ab8e}, !- Handle
  Schedule Rule 21,                       !- Name
  {887e85de-c128-4429-9fb0-3c821ba3d16a}, !- Schedule Ruleset Name
  0,                                      !- Rule Order
  {e6dcb967-a899-4686-815f-95bce701de0d}, !- Day Schedule Name
  Yes,                                    !- Apply Sunday
  ,                                       !- Apply Monday
  ,                                       !- Apply Tuesday
  ,                                       !- Apply Wednesday
  ,                                       !- Apply Thursday
  ,                                       !- Apply Friday
  ,                                       !- Apply Saturday
  DateRange,                              !- Date Specification Type
  1,                                      !- Start Month
  1,                                      !- Start Day
  12,                                     !- End Month
  31;                                     !- End Day

OS:Schedule:Day,
  {e6dcb967-a899-4686-815f-95bce701de0d}, !- Handle
  Schedule Day 6,                         !- Name
  {447f2422-083a-46b7-88c1-d6095c527480}, !- Schedule Type Limits Name
  ,                                       !- Interpolate to Timestep
  1,                                      !- Hour 1
  0,                                      !- Minute 1
  0,                                      !- Value Until Time 1
  2,                                      !- Hour 2
  0,                                      !- Minute 2
  1,                                      !- Value Until Time 2
  11,                                     !- Hour 3
  0,                                      !- Minute 3
  0,                                      !- Value Until Time 3
  23,                                     !- Hour 4
  0,                                      !- Minute 4
  1,                                      !- Value Until Time 4
  24,                                     !- Hour 5
  0,                                      !- Minute 5
  0;                                      !- Value Until Time 5

OS:AvailabilityManager:NightCycle,
  {9b17d754-f3b4-4d4b-a249-e198a9630861}, !- Handle
  Availability Manager Night Cycle 2,     !- Name
  {e7407118-c8d7-43b7-8bf6-efe6bde69cab}, !- Applicability Schedule
  ,                                       !- Fan Schedule
  CycleOnAny,                             !- Control Type
  1,                                      !- Thermostat Tolerance {deltaC}
  ,                                       !- Cycling Run Time Control Type
  3600,                                   !- Cycling Run Time {s}
  {c33e57c4-f12a-4917-9abf-20e6466ee1fe}, !- Control Zone or Zone List Name
  {8b84e75a-09fe-4aef-bcfe-17dc22aa0071}, !- Cooling Control Zone or Zone List Name
  {d121df31-87fa-4210-b31c-bac6965cc7f9}, !- Heating Control Zone or Zone List Name
  {6121570a-0b66-4e3c-b678-d2333fc54129}; !- Heating Zone Fans Only Zone or Zone List Name

OS:ModelObjectList,
  {c33e57c4-f12a-4917-9abf-20e6466ee1fe}, !- Handle
  Availability Manager Night Cycle 2 Control Zone List; !- Name

OS:ModelObjectList,
  {8b84e75a-09fe-4aef-bcfe-17dc22aa0071}, !- Handle
  Availability Manager Night Cycle 2 Cooling Control Zone List; !- Name

OS:ModelObjectList,
  {d121df31-87fa-4210-b31c-bac6965cc7f9}, !- Handle
  Availability Manager Night Cycle 2 Heating Control Zone List; !- Name

OS:ModelObjectList,
  {6121570a-0b66-4e3c-b678-d2333fc54129}, !- Handle
  Availability Manager Night Cycle 2 Heating Zone Fans Only Zone List; !- Name

OS:Schedule:Ruleset,
  {4c977873-ef33-440e-ac2f-26a87b7438d5}, !- Handle
  sys_3|mixed|shr>none|sc>dx|sh>c-e|ssf>cv|zh>b-hw|zc>none|srf>none| 1 Occ Sch, !- Name
  {447f2422-083a-46b7-88c1-d6095c527480}, !- Schedule Type Limits Name
  {96ca9d5b-5623-4f28-a8fa-5c2b5ee8430b}, !- Default Day Schedule Name
  {2c427972-ce87-4bbf-8fba-937fcebe8cdf}, !- Summer Design Day Schedule Name
  {ee330919-a3d0-4e7c-874f-9050ec3595e1}; !- Winter Design Day Schedule Name

OS:Schedule:Day,
  {96ca9d5b-5623-4f28-a8fa-5c2b5ee8430b}, !- Handle
  sys_3|mixed|shr>none|sc>dx|sh>c-e|ssf>cv|zh>b-hw|zc>none|srf>none| 1 Occ Sch Default, !- Name
  {447f2422-083a-46b7-88c1-d6095c527480}, !- Schedule Type Limits Name
  ,                                       !- Interpolate to Timestep
  1,                                      !- Hour 1
  0,                                      !- Minute 1
  1,                                      !- Value Until Time 1
  10,                                     !- Hour 2
  0,                                      !- Minute 2
  0,                                      !- Value Until Time 2
  24,                                     !- Hour 3
  0,                                      !- Minute 3
  1;                                      !- Value Until Time 3

OS:AdditionalProperties,
  {052604be-f75c-47c2-ad1d-119ec3c68d65}, !- Handle
  {4c977873-ef33-440e-ac2f-26a87b7438d5}, !- Object Name
  max_occ_in_spaces,                      !- Feature Name 1
  Double,                                 !- Feature Data Type 1
  6.9775368548757921,                     !- Feature Value 1
  number_of_spaces_included,              !- Feature Name 2
  Integer,                                !- Feature Data Type 2
  1,                                      !- Feature Value 2
  date_parent_object_last_edited,         !- Feature Name 3
  String,                                 !- Feature Data Type 3
  2025-10-15 17:31:05 UTC,                !- Feature Value 3
  date_parent_object_created,             !- Feature Name 4
  String,                                 !- Feature Data Type 4
  2025-10-15 17:31:05 UTC;                !- Feature Value 4

OS:Schedule:Day,
  {ee330919-a3d0-4e7c-874f-9050ec3595e1}, !- Handle
  sys_3|mixed|shr>none|sc>dx|sh>c-e|ssf>cv|zh>b-hw|zc>none|srf>none| 1 Occ Sch Winter Design Day, !- Name
  {447f2422-083a-46b7-88c1-d6095c527480}, !- Schedule Type Limits Name
  ,                                       !- Interpolate to Timestep
  24,                                     !- Hour 1
  0,                                      !- Minute 1
  1;                                      !- Value Until Time 1

OS:Schedule:Day,
  {2c427972-ce87-4bbf-8fba-937fcebe8cdf}, !- Handle
  sys_3|mixed|shr>none|sc>dx|sh>c-e|ssf>cv|zh>b-hw|zc>none|srf>none| 1 Occ Sch Summer Design Day, !- Name
  {447f2422-083a-46b7-88c1-d6095c527480}, !- Schedule Type Limits Name
  ,                                       !- Interpolate to Timestep
  24,                                     !- Hour 1
  0,                                      !- Minute 1
  1;                                      !- Value Until Time 1

OS:Schedule:Rule,
  {6b4ff133-8927-4bbb-bc98-2a6d17f420e0}, !- Handle
  Schedule Rule 22,                       !- Name
  {4c977873-ef33-440e-ac2f-26a87b7438d5}, !- Schedule Ruleset Name
  1,                                      !- Rule Order
  {73445430-69df-4da9-978b-dd8bd5b7ee1d}, !- Day Schedule Name
  ,                                       !- Apply Sunday
  ,                                       !- Apply Monday
  ,                                       !- Apply Tuesday
  ,                                       !- Apply Wednesday
  ,                                       !- Apply Thursday
  ,                                       !- Apply Friday
  Yes,                                    !- Apply Saturday
  DateRange,                              !- Date Specification Type
  1,                                      !- Start Month
  7,                                      !- Start Day
  12,                                     !- End Month
  30;                                     !- End Day

OS:Schedule:Day,
  {73445430-69df-4da9-978b-dd8bd5b7ee1d}, !- Handle
  Schedule Day 7,                         !- Name
  {447f2422-083a-46b7-88c1-d6095c527480}, !- Schedule Type Limits Name
  ,                                       !- Interpolate to Timestep
  2,                                      !- Hour 1
  0,                                      !- Minute 1
  1,                                      !- Value Until Time 1
  10,                                     !- Hour 2
  0,                                      !- Minute 2
  0,                                      !- Value Until Time 2
  24,                                     !- Hour 3
  0,                                      !- Minute 3
  1;                                      !- Value Until Time 3

OS:Schedule:Rule,
  {566f9443-c758-48db-ba2c-139284c21128}, !- Handle
  Schedule Rule 23,                       !- Name
  {4c977873-ef33-440e-ac2f-26a87b7438d5}, !- Schedule Ruleset Name
  0,                                      !- Rule Order
  {a8615a1b-4277-4a1e-82f5-26085fb9b027}, !- Day Schedule Name
  Yes,                                    !- Apply Sunday
  ,                                       !- Apply Monday
  ,                                       !- Apply Tuesday
  ,                                       !- Apply Wednesday
  ,                                       !- Apply Thursday
  ,                                       !- Apply Friday
  ,                                       !- Apply Saturday
  DateRange,                              !- Date Specification Type
  1,                                      !- Start Month
  1,                                      !- Start Day
  12,                                     !- End Month
  31;                                     !- End Day

OS:Schedule:Day,
  {a8615a1b-4277-4a1e-82f5-26085fb9b027}, !- Handle
  Schedule Day 8,                         !- Name
  {447f2422-083a-46b7-88c1-d6095c527480}, !- Schedule Type Limits Name
  ,                                       !- Interpolate to Timestep
  1,                                      !- Hour 1
  0,                                      !- Minute 1
  0,                                      !- Value Until Time 1
  2,                                      !- Hour 2
  0,                                      !- Minute 2
  1,                                      !- Value Until Time 2
  11,                                     !- Hour 3
  0,                                      !- Minute 3
  0,                                      !- Value Until Time 3
  23,                                     !- Hour 4
  0,                                      !- Minute 4
  1,                                      !- Value Until Time 4
  24,                                     !- Hour 5
  0,                                      !- Minute 5
  0;                                      !- Value Until Time 5

OS:Curve:Biquadratic,
  {133b7df9-97c1-428d-b466-e34f8a2a0d1e}, !- Handle
  DXCOOL-NECB2011-REF-CAPFT,              !- Name
  0.867905,                               !- Coefficient1 Constant
  0.0142459,                              !- Coefficient2 x
  0.00055436,                             !- Coefficient3 x**2
  -0.0075575,                             !- Coefficient4 y
  3.3e-05,                                !- Coefficient5 y**2
  -0.0001918,                             !- Coefficient6 x*y
  13,                                     !- Minimum Value of x
  24,                                     !- Maximum Value of x
  24,                                     !- Minimum Value of y
  46;                                     !- Maximum Value of y

OS:Curve:Quadratic,
  {41f96524-b5c8-47a1-97c7-9ef991f41cbe}, !- Handle
  DXCOOL-NECB2011-REF-CAPFFLOW,           !- Name
  0.8,                                    !- Coefficient1 Constant
  0.2,                                    !- Coefficient2 x
  0,                                      !- Coefficient3 x**2
  0.5,                                    !- Minimum Value of x
  1.5;                                    !- Maximum Value of x

OS:Curve:Biquadratic,
  {183b8e64-1fcf-418a-bdff-5ed11f872477}, !- Handle
  DXCOOL-NECB2011-REF-COOLEIRFT,          !- Name
  0.1141714,                              !- Coefficient1 Constant
  0.02818224,                             !- Coefficient2 x
  -0.0004199,                             !- Coefficient3 x**2
  0.02141082,                             !- Coefficient4 y
  0.000161028,                            !- Coefficient5 y**2
  -0.000679104,                           !- Coefficient6 x*y
  13,                                     !- Minimum Value of x
  24,                                     !- Maximum Value of x
  24,                                     !- Minimum Value of y
  46;                                     !- Maximum Value of y

OS:Curve:Quadratic,
  {e60bf7ce-e569-4c75-bcd7-1be2e60f0968}, !- Handle
  DXCOOL-NECB2011-REF-COOLEIRFFLOW,       !- Name
  1.1552,                                 !- Coefficient1 Constant
  -0.1808,                                !- Coefficient2 x
  0.0256,                                 !- Coefficient3 x**2
  0.5,                                    !- Minimum Value of x
  1.5;                                    !- Maximum Value of x

OS:Curve:Cubic,
  {ace51762-2d95-4b5c-b423-4366ac812253}, !- Handle
  DXCOOL-NECB2011-REF-COOLPLFFPLR,        !- Name
  0.0277,                                 !- Coefficient1 Constant
  4.9151,                                 !- Coefficient2 x
  -8.184,                                 !- Coefficient3 x**2
  4.2702,                                 !- Coefficient4 x**3
  0.7,                                    !- Minimum Value of x
  1;                                      !- Maximum Value of x

OS:Curve:Cubic,
  {0c10250b-eda6-4a94-8c16-169cbcf57215}, !- Handle
  BOILER-EFFFPLR-NECB2011,                !- Name
  0.3831,                                 !- Coefficient1 Constant
  2.0567,                                 !- Coefficient2 x
  -2.6469,                                !- Coefficient3 x**2
  1.2148,                                 !- Coefficient4 x**3
  0,                                      !- Minimum Value of x
  1;                                      !- Maximum Value of x

OS:Curve:Cubic,
  {9a5356cd-1c0f-4392-8386-e605e1e2dd5d}, !- Handle
  SWH-EFFFPLR-NECB2011,                   !- Name
  0.7576,                                 !- Coefficient1 Constant
  1.0071,                                 !- Coefficient2 x
  -1.4443,                                !- Coefficient3 x**2
  0.6844,                                 !- Coefficient4 x**3
  0,                                      !- Minimum Value of x
  1;                                      !- Maximum Value of x

