
OS:Version,
  {91ab8ab2-06ca-4c90-8af8-2d4c9d9bcd3d}, !- Handle
  3.9.0;                                  !- Version Identifier

OS:ScheduleTypeLimits,
  {d9e71e5a-5f4c-49f8-9a74-7b39ec47a1d5}, !- Handle
  Always On Discrete Limits,              !- Name
  0,                                      !- Lower Limit Value
  1,                                      !- Upper Limit Value
  Discrete,                               !- Numeric Type
  Availability;                           !- Unit Type

OS:Site,
  {780cebd4-d970-49f6-8a67-996a6b51b6bf}, !- Handle
  Calgary Intl AP_AB_CAN,                 !- Name
  51.11,                                  !- Latitude {deg}
  -114.02,                                !- Longitude {deg}
  -7,                                     !- Time Zone {hr}
  1084.1,                                 !- Elevation {m}
  City;                                   !- Terrain

OS:SimulationControl,
  {8e6d581c-8bc1-4ad1-93a1-3671638d2d44}, !- Handle
  Yes,                                    !- Do Zone Sizing Calculation
  Yes,                                    !- Do System Sizing Calculation
  Yes,                                    !- Do Plant Sizing Calculation
  No,                                     !- Run Simulation for Sizing Periods
  Yes,                                    !- Run Simulation for Weather File Run Periods
  0.04,                                   !- Loads Convergence Tolerance Value {W}
  0.2,                                    !- Temperature Convergence Tolerance Value {deltaC}
  FullInteriorAndExterior,                !- Solar Distribution
  25,                                     !- Maximum Number of Warmup Days
  6,                                      !- Minimum Number of Warmup Days
  No,                                     !- Do HVAC Sizing Simulation for Sizing Periods
  1;                                      !- Maximum Number of HVAC Sizing Simulation Passes

OS:Surface,
  {f92df46b-44ed-4bc4-a65b-b4687c727c14}, !- Handle
  Kitchen_Ceiling,                        !- Name
  RoofCeiling,                            !- Surface Type
  ,                                       !- Construction Name
  {77d3cfbe-7d30-4aaf-86db-75976a798830}, !- Space Name
  Surface,                                !- Outside Boundary Condition
  {99a3fb5b-eea2-4c47-b391-cc45f8583bd0}, !- Outside Boundary Condition Object
  NoSun,                                  !- Sun Exposure
  NoWind,                                 !- Wind Exposure
  ,                                       !- View Factor to Ground
  ,                                       !- Number of Vertices
  22.6087, 16.4427, 3.0488,               !- X,Y,Z Vertex 1 {m}
  22.6087, 22.6087, 3.0488,               !- X,Y,Z Vertex 2 {m}
  0, 22.6087, 3.0488,                     !- X,Y,Z Vertex 3 {m}
  0, 16.4427, 3.0488;                     !- X,Y,Z Vertex 4 {m}

OS:Space,
  {77d3cfbe-7d30-4aaf-86db-75976a798830}, !- Handle
  Kitchen,                                !- Name
  {f72f339a-7251-400d-abf7-c267ec6d3b23}, !- Space Type Name
  ,                                       !- Default Construction Set Name
  ,                                       !- Default Schedule Set Name
  0,                                      !- Direction of Relative North {deg}
  0,                                      !- X Origin {m}
  0,                                      !- Y Origin {m}
  0,                                      !- Z Origin {m}
  {28f49d8d-3737-4296-b4ec-3bf67b00f788}, !- Building Story Name
  {2d900e33-03a0-4b31-821d-9a93014e9d28}, !- Thermal Zone Name
  Yes,                                    !- Part of Total Floor Area
  ,                                       !- Design Specification Outdoor Air Object Name
  ,                                       !- Building Unit Name
  Autocalculate;                          !- Volume {m3}

OS:Output:Meter,
  {2c504f0f-1677-4791-a625-c9fdceff2175}, !- Handle
  ElectricityNet:Facility,                !- Name
  Hourly,                                 !- Reporting Frequency
  True,                                   !- Meter File Only
  False;                                  !- Cumulative

OS:Surface,
  {a98a3d24-77be-4dd8-9ea4-dce8b4b21baf}, !- Handle
  Dining_Wall_South,                      !- Name
  Wall,                                   !- Surface Type
  ,                                       !- Construction Name
  {d48cb50c-3a07-4ed6-baac-fe451a3f5495}, !- Space Name
  Outdoors,                               !- Outside Boundary Condition
  ,                                       !- Outside Boundary Condition Object
  SunExposed,                             !- Sun Exposure
  WindExposed,                            !- Wind Exposure
  ,                                       !- View Factor to Ground
  ,                                       !- Number of Vertices
  0, 0, 3.0488,                           !- X,Y,Z Vertex 1 {m}
  0, 0, 0,                                !- X,Y,Z Vertex 2 {m}
  22.6087, 0, 0,                          !- X,Y,Z Vertex 3 {m}
  22.6087, 0, 3.0488;                     !- X,Y,Z Vertex 4 {m}

OS:Space,
  {d48cb50c-3a07-4ed6-baac-fe451a3f5495}, !- Handle
  Dining,                                 !- Name
  {74d79ecf-87d4-4cbb-ba37-86cfde5c20bb}, !- Space Type Name
  ,                                       !- Default Construction Set Name
  ,                                       !- Default Schedule Set Name
  0,                                      !- Direction of Relative North {deg}
  0,                                      !- X Origin {m}
  0,                                      !- Y Origin {m}
  0,                                      !- Z Origin {m}
  {28f49d8d-3737-4296-b4ec-3bf67b00f788}, !- Building Story Name
  {c3aa944b-5629-41b1-a0ae-7a3f1c284629}, !- Thermal Zone Name
  Yes,                                    !- Part of Total Floor Area
  ,                                       !- Design Specification Outdoor Air Object Name
  ,                                       !- Building Unit Name
  Autocalculate;                          !- Volume {m3}

OS:Surface,
  {2d02da2f-1bea-4fb4-b48e-f0da184c6074}, !- Handle
  north-roof,                             !- Name
  RoofCeiling,                            !- Surface Type
  ,                                       !- Construction Name
  {a6d9b45b-2723-43c6-8355-1e3d52bed681}, !- Space Name
  Outdoors,                               !- Outside Boundary Condition
  ,                                       !- Outside Boundary Condition Object
  SunExposed,                             !- Sun Exposure
  WindExposed,                            !- Wind Exposure
  ,                                       !- View Factor to Ground
  ,                                       !- Number of Vertices
  11.3044, 18.8397, 3.7692,               !- X,Y,Z Vertex 1 {m}
  22.6087, 22.6087, 0,                    !- X,Y,Z Vertex 2 {m}
  0, 22.6087, 0;                          !- X,Y,Z Vertex 3 {m}

OS:Space,
  {a6d9b45b-2723-43c6-8355-1e3d52bed681}, !- Handle
  attic,                                  !- Name
  {73bc1497-600d-436a-a675-cd1456fcf9ac}, !- Space Type Name
  ,                                       !- Default Construction Set Name
  ,                                       !- Default Schedule Set Name
  0,                                      !- Direction of Relative North {deg}
  0,                                      !- X Origin {m}
  0,                                      !- Y Origin {m}
  3.0488,                                 !- Z Origin {m}
  {f0fd8038-c2dd-4caa-93ad-11e3bdfa35ec}, !- Building Story Name
  {f5be1e1b-5ef5-474d-9c30-a2ec15c09633}, !- Thermal Zone Name
  No,                                     !- Part of Total Floor Area
  ,                                       !- Design Specification Outdoor Air Object Name
  ,                                       !- Building Unit Name
  Autocalculate;                          !- Volume {m3}

OS:Surface,
  {628c7363-89f7-4a36-b959-b9f52e0cab7c}, !- Handle
  Kitchen_Wall_North,                     !- Name
  Wall,                                   !- Surface Type
  ,                                       !- Construction Name
  {77d3cfbe-7d30-4aaf-86db-75976a798830}, !- Space Name
  Outdoors,                               !- Outside Boundary Condition
  ,                                       !- Outside Boundary Condition Object
  SunExposed,                             !- Sun Exposure
  WindExposed,                            !- Wind Exposure
  ,                                       !- View Factor to Ground
  ,                                       !- Number of Vertices
  22.6087, 22.6087, 3.0488,               !- X,Y,Z Vertex 1 {m}
  22.6087, 22.6087, 0,                    !- X,Y,Z Vertex 2 {m}
  0, 22.6087, 0,                          !- X,Y,Z Vertex 3 {m}
  0, 22.6087, 3.0488;                     !- X,Y,Z Vertex 4 {m}

OS:Surface,
  {c8a19cd4-2eef-4dab-9ff8-b3cd1bd596db}, !- Handle
  south-roof,                             !- Name
  RoofCeiling,                            !- Surface Type
  ,                                       !- Construction Name
  {a6d9b45b-2723-43c6-8355-1e3d52bed681}, !- Space Name
  Outdoors,                               !- Outside Boundary Condition
  ,                                       !- Outside Boundary Condition Object
  SunExposed,                             !- Sun Exposure
  WindExposed,                            !- Wind Exposure
  ,                                       !- View Factor to Ground
  ,                                       !- Number of Vertices
  11.3044, 3.769, 3.7692,                 !- X,Y,Z Vertex 1 {m}
  -1.73917179908584e-034, -6.74580236774689e-017, 6.7454444242911e-017, !- X,Y,Z Vertex 2 {m}
  22.6087, -9.66039263974126e-017, 9.65988004329428e-017; !- X,Y,Z Vertex 3 {m}

OS:Surface,
  {80882478-4818-4b6c-a701-0a4f97af99ea}, !- Handle
  Dining_Wall_East,                       !- Name
  Wall,                                   !- Surface Type
  ,                                       !- Construction Name
  {d48cb50c-3a07-4ed6-baac-fe451a3f5495}, !- Space Name
  Outdoors,                               !- Outside Boundary Condition
  ,                                       !- Outside Boundary Condition Object
  SunExposed,                             !- Sun Exposure
  WindExposed,                            !- Wind Exposure
  ,                                       !- View Factor to Ground
  ,                                       !- Number of Vertices
  22.6087, 0, 3.0488,                     !- X,Y,Z Vertex 1 {m}
  22.6087, 0, 0,                          !- X,Y,Z Vertex 2 {m}
  22.6087, 16.4427, 0,                    !- X,Y,Z Vertex 3 {m}
  22.6087, 16.4427, 3.0488;               !- X,Y,Z Vertex 4 {m}

OS:Timestep,
  {79cc9340-93d4-4f72-a5ca-b64451a57564}, !- Handle
  6;                                      !- Number of Timesteps per Hour

OS:Surface,
  {8f0d9014-6f65-4cc2-a0bf-390dce688306}, !- Handle
  Dining_Wall_West,                       !- Name
  Wall,                                   !- Surface Type
  ,                                       !- Construction Name
  {d48cb50c-3a07-4ed6-baac-fe451a3f5495}, !- Space Name
  Outdoors,                               !- Outside Boundary Condition
  ,                                       !- Outside Boundary Condition Object
  SunExposed,                             !- Sun Exposure
  WindExposed,                            !- Wind Exposure
  ,                                       !- View Factor to Ground
  ,                                       !- Number of Vertices
  0, 16.4427, 3.0488,                     !- X,Y,Z Vertex 1 {m}
  0, 16.4427, 0,                          !- X,Y,Z Vertex 2 {m}
  0, 0, 0,                                !- X,Y,Z Vertex 3 {m}
  0, 0, 3.0488;                           !- X,Y,Z Vertex 4 {m}

OS:Surface,
  {cb50c49a-cbad-4855-96c4-0782e1d597c9}, !- Handle
  Dining_Floor,                           !- Name
  Floor,                                  !- Surface Type
  {f26918e8-3879-4898-bcdb-3efd0e82b0b6}, !- Construction Name
  {d48cb50c-3a07-4ed6-baac-fe451a3f5495}, !- Space Name
  Foundation,                             !- Outside Boundary Condition
  {d93621e8-68b3-427b-b5f7-d12a73c3e1c5}, !- Outside Boundary Condition Object
  NoSun,                                  !- Sun Exposure
  NoWind,                                 !- Wind Exposure
  ,                                       !- View Factor to Ground
  ,                                       !- Number of Vertices
  22.6087, 16.4427, 0,                    !- X,Y,Z Vertex 1 {m}
  22.6087, 0, 0,                          !- X,Y,Z Vertex 2 {m}
  0, 0, 0,                                !- X,Y,Z Vertex 3 {m}
  0, 16.4427, 0;                          !- X,Y,Z Vertex 4 {m}

OS:Surface,
  {ff63dcc8-88a6-4e75-a736-a16ea7374519}, !- Handle
  Dining_Ceiling,                         !- Name
  RoofCeiling,                            !- Surface Type
  ,                                       !- Construction Name
  {d48cb50c-3a07-4ed6-baac-fe451a3f5495}, !- Space Name
  Surface,                                !- Outside Boundary Condition
  {60fffe8d-e21f-43c1-9f06-30986f76ee3e}, !- Outside Boundary Condition Object
  NoSun,                                  !- Sun Exposure
  NoWind,                                 !- Wind Exposure
  ,                                       !- View Factor to Ground
  ,                                       !- Number of Vertices
  22.6087, 0, 3.0488,                     !- X,Y,Z Vertex 1 {m}
  22.6087, 16.4427, 3.0488,               !- X,Y,Z Vertex 2 {m}
  0, 16.4427, 3.0488,                     !- X,Y,Z Vertex 3 {m}
  0, 0, 3.0488;                           !- X,Y,Z Vertex 4 {m}

OS:Surface,
  {15bdfbf5-28b3-4f6b-939c-af2a310fc326}, !- Handle
  west-roof,                              !- Name
  RoofCeiling,                            !- Surface Type
  ,                                       !- Construction Name
  {a6d9b45b-2723-43c6-8355-1e3d52bed681}, !- Space Name
  Outdoors,                               !- Outside Boundary Condition
  ,                                       !- Outside Boundary Condition Object
  SunExposed,                             !- Sun Exposure
  WindExposed,                            !- Wind Exposure
  ,                                       !- View Factor to Ground
  ,                                       !- Number of Vertices
  11.3044, 18.8397, 3.7692,               !- X,Y,Z Vertex 1 {m}
  -1.57308521999447e-016, 22.6087, 4.71792013183315e-016, !- X,Y,Z Vertex 2 {m}
  -1.1417329679585e-016, -2.17720723655857e-033, 3.42422958797359e-016, !- X,Y,Z Vertex 3 {m}
  11.3044, 3.769, 3.7692;                 !- X,Y,Z Vertex 4 {m}

OS:Surface,
  {b8b44463-bcda-4673-8d04-2c845d134292}, !- Handle
  Kitchen_Wall_West,                      !- Name
  Wall,                                   !- Surface Type
  ,                                       !- Construction Name
  {77d3cfbe-7d30-4aaf-86db-75976a798830}, !- Space Name
  Outdoors,                               !- Outside Boundary Condition
  ,                                       !- Outside Boundary Condition Object
  SunExposed,                             !- Sun Exposure
  WindExposed,                            !- Wind Exposure
  ,                                       !- View Factor to Ground
  ,                                       !- Number of Vertices
  0, 22.6087, 3.0488,                     !- X,Y,Z Vertex 1 {m}
  0, 22.6087, 0,                          !- X,Y,Z Vertex 2 {m}
  0, 16.4427, 0,                          !- X,Y,Z Vertex 3 {m}
  0, 16.4427, 3.0488;                     !- X,Y,Z Vertex 4 {m}

OS:Surface,
  {18d25d92-d723-4017-980c-f20184bc1dd2}, !- Handle
  Dining_Wall_North-PPAutoCreateOther,    !- Name
  Wall,                                   !- Surface Type
  ,                                       !- Construction Name
  {77d3cfbe-7d30-4aaf-86db-75976a798830}, !- Space Name
  Surface,                                !- Outside Boundary Condition
  {1bf4d799-b7fc-481e-b40e-29c78d189519}, !- Outside Boundary Condition Object
  NoSun,                                  !- Sun Exposure
  NoWind,                                 !- Wind Exposure
  ,                                       !- View Factor to Ground
  ,                                       !- Number of Vertices
  0, 16.4427, 3.0488,                     !- X,Y,Z Vertex 1 {m}
  0, 16.4427, 0,                          !- X,Y,Z Vertex 2 {m}
  22.6087, 16.4427, 0,                    !- X,Y,Z Vertex 3 {m}
  22.6087, 16.4427, 3.0488;               !- X,Y,Z Vertex 4 {m}

OS:ShadowCalculation,
  {137b265b-7d90-4b85-83d6-6f49d95bdf56}, !- Handle
  PolygonClipping,                        !- Shading Calculation Method
  ,                                       !- Shading Calculation Update Frequency Method
  7,                                      !- Shading Calculation Update Frequency
  15000,                                  !- Maximum Figures in Shadow Overlap Calculations
  ,                                       !- Polygon Clipping Algorithm
  512,                                    !- Pixel Counting Resolution
  ,                                       !- Sky Diffuse Modeling Algorithm
  No,                                     !- Output External Shading Calculation Results
  No,                                     !- Disable Self-Shading Within Shading Zone Groups
  No;                                     !- Disable Self-Shading From Shading Zone Groups to Other Zones

OS:Surface,
  {60fffe8d-e21f-43c1-9f06-30986f76ee3e}, !- Handle
  attic-floor-dinning,                    !- Name
  Floor,                                  !- Surface Type
  ,                                       !- Construction Name
  {a6d9b45b-2723-43c6-8355-1e3d52bed681}, !- Space Name
  Surface,                                !- Outside Boundary Condition
  {ff63dcc8-88a6-4e75-a736-a16ea7374519}, !- Outside Boundary Condition Object
  NoSun,                                  !- Sun Exposure
  NoWind,                                 !- Wind Exposure
  ,                                       !- View Factor to Ground
  ,                                       !- Number of Vertices
  22.6087, 16.4427, 0,                    !- X,Y,Z Vertex 1 {m}
  22.6087, 0, 0,                          !- X,Y,Z Vertex 2 {m}
  0, 0, 0,                                !- X,Y,Z Vertex 3 {m}
  0, 16.4427, 0;                          !- X,Y,Z Vertex 4 {m}

OS:Surface,
  {99a3fb5b-eea2-4c47-b391-cc45f8583bd0}, !- Handle
  attic-floor-kitchen,                    !- Name
  Floor,                                  !- Surface Type
  ,                                       !- Construction Name
  {a6d9b45b-2723-43c6-8355-1e3d52bed681}, !- Space Name
  Surface,                                !- Outside Boundary Condition
  {f92df46b-44ed-4bc4-a65b-b4687c727c14}, !- Outside Boundary Condition Object
  NoSun,                                  !- Sun Exposure
  NoWind,                                 !- Wind Exposure
  ,                                       !- View Factor to Ground
  ,                                       !- Number of Vertices
  22.6087, 22.6087, 0,                    !- X,Y,Z Vertex 1 {m}
  22.6087, 16.4427, 0,                    !- X,Y,Z Vertex 2 {m}
  0, 16.4427, 0,                          !- X,Y,Z Vertex 3 {m}
  0, 22.6087, 0;                          !- X,Y,Z Vertex 4 {m}

OS:Surface,
  {f5f1a811-415b-4d09-b2da-ccbe1f40d3a2}, !- Handle
  Kitchen_Floor,                          !- Name
  Floor,                                  !- Surface Type
  {f26918e8-3879-4898-bcdb-3efd0e82b0b6}, !- Construction Name
  {77d3cfbe-7d30-4aaf-86db-75976a798830}, !- Space Name
  Foundation,                             !- Outside Boundary Condition
  {d93621e8-68b3-427b-b5f7-d12a73c3e1c5}, !- Outside Boundary Condition Object
  NoSun,                                  !- Sun Exposure
  NoWind,                                 !- Wind Exposure
  ,                                       !- View Factor to Ground
  ,                                       !- Number of Vertices
  22.6087, 22.6087, 0,                    !- X,Y,Z Vertex 1 {m}
  22.6087, 16.4427, 0,                    !- X,Y,Z Vertex 2 {m}
  0, 16.4427, 0,                          !- X,Y,Z Vertex 3 {m}
  0, 22.6087, 0;                          !- X,Y,Z Vertex 4 {m}

OS:RunPeriod,
  {3c4ccfb1-e715-4662-9c52-be1b0a138576}, !- Handle
  Run Period 1,                           !- Name
  1,                                      !- Begin Month
  1,                                      !- Begin Day of Month
  12,                                     !- End Month
  31,                                     !- End Day of Month
  No,                                     !- Use Weather File Holidays and Special Days
  No,                                     !- Use Weather File Daylight Saving Period
  No,                                     !- Apply Weekend Holiday Rule
  Yes,                                    !- Use Weather File Rain Indicators
  Yes,                                    !- Use Weather File Snow Indicators
  1;                                      !- Number of Times Runperiod to be Repeated

OS:YearDescription,
  {7190988a-56b7-49e4-be5c-e6199b78fff0}, !- Handle
  ,                                       !- Calendar Year
  Sunday;                                 !- Day of Week for Start Day

OS:HeatBalanceAlgorithm,
  {64382367-5719-4453-8c29-e1a70cef6d9c}, !- Handle
  ConductionTransferFunction,             !- Algorithm
  200;                                    !- Surface Temperature Upper Limit {C}

OS:Surface,
  {1bf4d799-b7fc-481e-b40e-29c78d189519}, !- Handle
  Dining_Wall_North,                      !- Name
  Wall,                                   !- Surface Type
  ,                                       !- Construction Name
  {d48cb50c-3a07-4ed6-baac-fe451a3f5495}, !- Space Name
  Surface,                                !- Outside Boundary Condition
  {18d25d92-d723-4017-980c-f20184bc1dd2}, !- Outside Boundary Condition Object
  NoSun,                                  !- Sun Exposure
  NoWind,                                 !- Wind Exposure
  ,                                       !- View Factor to Ground
  ,                                       !- Number of Vertices
  22.6087, 16.4427, 3.0488,               !- X,Y,Z Vertex 1 {m}
  22.6087, 16.4427, 0,                    !- X,Y,Z Vertex 2 {m}
  0, 16.4427, 0,                          !- X,Y,Z Vertex 3 {m}
  0, 16.4427, 3.0488;                     !- X,Y,Z Vertex 4 {m}

OS:Output:Meter,
  {691ea4a2-e815-4852-aa14-ac1ce9bfcf5c}, !- Handle
  NaturalGas:Facility,                    !- Name
  Hourly,                                 !- Reporting Frequency
  True,                                   !- Meter File Only
  False;                                  !- Cumulative

OS:ConvergenceLimits,
  {a71a34c7-4772-4b25-9024-f2d758143793}, !- Handle
  1,                                      !- Minimum System Timestep {minutes}
  20;                                     !- Maximum HVAC Iterations

OS:Output:Meter,
  {ceae7f14-5ab7-4a91-9729-89b3f9655715}, !- Handle
  Electricity:Facility,                   !- Name
  Hourly,                                 !- Reporting Frequency
  True,                                   !- Meter File Only
  False;                                  !- Cumulative

OS:Surface,
  {c948d197-ce91-4318-a26c-8d47d0d034ce}, !- Handle
  Kitchen_Wall_East,                      !- Name
  Wall,                                   !- Surface Type
  ,                                       !- Construction Name
  {77d3cfbe-7d30-4aaf-86db-75976a798830}, !- Space Name
  Outdoors,                               !- Outside Boundary Condition
  ,                                       !- Outside Boundary Condition Object
  SunExposed,                             !- Sun Exposure
  WindExposed,                            !- Wind Exposure
  ,                                       !- View Factor to Ground
  ,                                       !- Number of Vertices
  22.6087, 16.4427, 3.0488,               !- X,Y,Z Vertex 1 {m}
  22.6087, 16.4427, 0,                    !- X,Y,Z Vertex 2 {m}
  22.6087, 22.6087, 0,                    !- X,Y,Z Vertex 3 {m}
  22.6087, 22.6087, 3.0488;               !- X,Y,Z Vertex 4 {m}

OS:Building,
  {57a0612b-80fa-4a4f-8704-b192e6d39f92}, !- Handle
  FullServiceRestaurant,                  !- Name
  ,                                       !- Building Sector Type
  0,                                      !- North Axis {deg}
  ,                                       !- Nominal Floor to Floor Height {m}
  ,                                       !- Space Type Name
  {498c3b46-c444-4460-96f6-c9e9b2db3352}, !- Default Construction Set Name
  ,                                       !- Default Schedule Set Name
  1,                                      !- Standards Number of Stories
  1,                                      !- Standards Number of Above Ground Stories
  NECB2011,                               !- Standards Template
  FullServiceRestaurant;                  !- Standards Building Type

OS:Surface,
  {2634f8db-e6bf-4750-b638-5aac0aaf0b7c}, !- Handle
  east-roof,                              !- Name
  RoofCeiling,                            !- Surface Type
  ,                                       !- Construction Name
  {a6d9b45b-2723-43c6-8355-1e3d52bed681}, !- Space Name
  Outdoors,                               !- Outside Boundary Condition
  ,                                       !- Outside Boundary Condition Object
  SunExposed,                             !- Sun Exposure
  WindExposed,                            !- Wind Exposure
  ,                                       !- View Factor to Ground
  ,                                       !- Number of Vertices
  11.3044, 3.769, 3.7692,                 !- X,Y,Z Vertex 1 {m}
  22.6087, 0, 0,                          !- X,Y,Z Vertex 2 {m}
  22.6087, 22.6087, 0,                    !- X,Y,Z Vertex 3 {m}
  11.3044, 18.8397, 3.7692;               !- X,Y,Z Vertex 4 {m}

OS:Facility,
  {8630d1c8-2694-4622-ac46-ec75f253c7ea}; !- Handle

OS:BuildingStory,
  {28f49d8d-3737-4296-b4ec-3bf67b00f788}, !- Handle
  Building Story 1,                       !- Name
  0,                                      !- Nominal Z Coordinate {m}
  ,                                       !- Nominal Floor to Floor Height {m}
  ,                                       !- Default Construction Set Name
  ,                                       !- Default Schedule Set Name
  ;                                       !- Group Rendering Name

OS:BuildingStory,
  {f0fd8038-c2dd-4caa-93ad-11e3bdfa35ec}, !- Handle
  Building Story 2,                       !- Name
  3.0488,                                 !- Nominal Z Coordinate {m}
  ,                                       !- Nominal Floor to Floor Height {m}
  ,                                       !- Default Construction Set Name
  ,                                       !- Default Schedule Set Name
  ;                                       !- Group Rendering Name

OS:WeatherFile,
  {591e076f-b1ff-4f98-9dd0-4f1873bc12ec}, !- Handle
  Calgary Intl AP,                        !- City
  AB,                                     !- State Province Region
  CAN,                                    !- Country
  CWEC2020,                               !- Data Source
  718770,                                 !- WMO Number
  51.11,                                  !- Latitude {deg}
  -114.02,                                !- Longitude {deg}
  -7,                                     !- Time Zone {hr}
  1084.1,                                 !- Elevation {m}
  /home/osdev/openstudio-standards/data/weather/CAN_AB_Calgary.Intl.AP.718770_CWEC2020.epw, !- Url
  1F2D03BB,                               !- Checksum
  ,                                       !- Start Date Actual Year
  Sunday;                                 !- Start Day of Week

OS:Site:WaterMainsTemperature,
  {d4488da0-43af-4769-8758-7b0d3a753888}, !- Handle
  Correlation,                            !- Calculation Method
  ,                                       !- Temperature Schedule Name
  4.69166666666667,                       !- Annual Average Outdoor Air Temperature {C}
  24.6;                                   !- Maximum Difference In Monthly Average Outdoor Air Temperatures {deltaC}

OS:Site:GroundTemperature:BuildingSurface,
  {e1936907-687d-474b-be93-754a3a0b3ae4}, !- Handle
  19.527,                                 !- January Ground Temperature {C}
  19.502,                                 !- February Ground Temperature {C}
  19.536,                                 !- March Ground Temperature {C}
  19.598,                                 !- April Ground Temperature {C}
  20.002,                                 !- May Ground Temperature {C}
  21.64,                                  !- June Ground Temperature {C}
  22.225,                                 !- July Ground Temperature {C}
  22.375,                                 !- August Ground Temperature {C}
  21.449,                                 !- September Ground Temperature {C}
  20.121,                                 !- October Ground Temperature {C}
  19.802,                                 !- November Ground Temperature {C}
  19.633;                                 !- December Ground Temperature {C}

OS:SpaceType,
  {73bc1497-600d-436a-a675-cd1456fcf9ac}, !- Handle
  Space Function - undefined -,           !- Name
  ,                                       !- Default Construction Set Name
  {3245365f-c91c-487b-a40c-9f78e41e397a}, !- Default Schedule Set Name
  {25b25640-c878-40e8-8097-24f2b1057f8a}, !- Group Rendering Name
  {7d22e281-4c19-4070-95b5-1d0fa038bc55}, !- Design Specification Outdoor Air Object Name
  ,                                       !- Standards Template
  Space Function,                         !- Standards Building Type
  - undefined -;                          !- Standards Space Type

OS:Rendering:Color,
  {2d245aba-2197-4e89-8d94-0ab8b7d48165}, !- Handle
  Space Function - undefined -,           !- Name
  255,                                    !- Rendering Red Value
  255,                                    !- Rendering Green Value
  255;                                    !- Rendering Blue Value

OS:SpaceType,
  {74d79ecf-87d4-4cbb-ba37-86cfde5c20bb}, !- Handle
  Space Function Dining - family space,   !- Name
  ,                                       !- Default Construction Set Name
  {86c8efff-77c8-44b1-b9bb-8e775d721858}, !- Default Schedule Set Name
  {a2bddf72-b10f-45b1-9be2-06a4d9db7d06}, !- Group Rendering Name
  {dbdebf6e-4a24-4a5e-87f9-5a090708cf6d}, !- Design Specification Outdoor Air Object Name
  ,                                       !- Standards Template
  Space Function,                         !- Standards Building Type
  Dining - family space;                  !- Standards Space Type

OS:Rendering:Color,
  {7a9e8539-9cb5-4ca2-908b-238e9d319c5c}, !- Handle
  Space Function Dining - family space,   !- Name
  255,                                    !- Rendering Red Value
  255,                                    !- Rendering Green Value
  255;                                    !- Rendering Blue Value

OS:SpaceType,
  {f72f339a-7251-400d-abf7-c267ec6d3b23}, !- Handle
  Space Function Food preparation,        !- Name
  ,                                       !- Default Construction Set Name
  {c52553df-fd2f-4af9-a678-f7ffbccbd4ea}, !- Default Schedule Set Name
  {879f03cb-91a8-4d61-a29b-13927f602155}, !- Group Rendering Name
  {82c6782c-5ba2-4592-b601-f3c48a55d1f8}, !- Design Specification Outdoor Air Object Name
  ,                                       !- Standards Template
  Space Function,                         !- Standards Building Type
  Food preparation;                       !- Standards Space Type

OS:Rendering:Color,
  {03141d71-f229-4289-b14b-a6ad922f5827}, !- Handle
  Space Function Food preparation,        !- Name
  255,                                    !- Rendering Red Value
  255,                                    !- Rendering Green Value
  255;                                    !- Rendering Blue Value

OS:SizingPeriod:DesignDay,
  {0a11daa7-5c3e-44b4-a248-1cd3d8bc7f43}, !- Handle
  Calgary Intl AP Ann Clg .4% Condns DB=>MWB, !- Name
  28.8,                                   !- Maximum Dry-Bulb Temperature {C}
  12.3,                                   !- Daily Dry-Bulb Temperature Range {deltaC}
  88961,                                  !- Barometric Pressure {Pa}
  4.5,                                    !- Wind Speed {m/s}
  160,                                    !- Wind Direction {deg}
  ,                                       !- Sky Clearness
  No,                                     !- Rain Indicator
  No,                                     !- Snow Indicator
  21,                                     !- Day of Month
  7,                                      !- Month
  SummerDesignDay,                        !- Day Type
  No,                                     !- Daylight Saving Time Indicator
  Wetbulb,                                !- Humidity Condition Type
  ,                                       !- Humidity Condition Day Schedule Name
  16,                                     !- Wetbulb or DewPoint at Maximum Dry-Bulb {C}
  ,                                       !- Humidity Ratio at Maximum Dry-Bulb {kgWater/kgDryAir}
  ,                                       !- Enthalpy at Maximum Dry-Bulb {J/kg}
  DefaultMultipliers,                     !- Dry-Bulb Temperature Range Modifier Type
  ,                                       !- Dry-Bulb Temperature Range Modifier Day Schedule Name
  ASHRAETau,                              !- Solar Model Indicator
  ,                                       !- Beam Solar Day Schedule Name
  ,                                       !- Diffuse Solar Day Schedule Name
  0.34,                                   !- ASHRAE Clear Sky Optical Depth for Beam Irradiance {dimensionless}
  2.419;                                  !- ASHRAE Clear Sky Optical Depth for Diffuse Irradiance {dimensionless}

OS:SizingPeriod:DesignDay,
  {401e62be-72b7-47ea-98ec-5bd551d43a6b}, !- Handle
  Calgary Intl AP Ann Clg .4% Condns WB=>MDB, !- Name
  25.5,                                   !- Maximum Dry-Bulb Temperature {C}
  12.3,                                   !- Daily Dry-Bulb Temperature Range {deltaC}
  88961,                                  !- Barometric Pressure {Pa}
  4.5,                                    !- Wind Speed {m/s}
  160,                                    !- Wind Direction {deg}
  ,                                       !- Sky Clearness
  No,                                     !- Rain Indicator
  No,                                     !- Snow Indicator
  21,                                     !- Day of Month
  7,                                      !- Month
  SummerDesignDay,                        !- Day Type
  No,                                     !- Daylight Saving Time Indicator
  Wetbulb,                                !- Humidity Condition Type
  ,                                       !- Humidity Condition Day Schedule Name
  17.8,                                   !- Wetbulb or DewPoint at Maximum Dry-Bulb {C}
  ,                                       !- Humidity Ratio at Maximum Dry-Bulb {kgWater/kgDryAir}
  ,                                       !- Enthalpy at Maximum Dry-Bulb {J/kg}
  DefaultMultipliers,                     !- Dry-Bulb Temperature Range Modifier Type
  ,                                       !- Dry-Bulb Temperature Range Modifier Day Schedule Name
  ASHRAETau,                              !- Solar Model Indicator
  ,                                       !- Beam Solar Day Schedule Name
  ,                                       !- Diffuse Solar Day Schedule Name
  0.34,                                   !- ASHRAE Clear Sky Optical Depth for Beam Irradiance {dimensionless}
  2.419;                                  !- ASHRAE Clear Sky Optical Depth for Diffuse Irradiance {dimensionless}

OS:SizingPeriod:DesignDay,
  {d90a1252-0798-4bef-a5de-30186beb0535}, !- Handle
  Calgary Intl AP Ann Htg 99.6% Condns DB, !- Name
  -27.7,                                  !- Maximum Dry-Bulb Temperature {C}
  0,                                      !- Daily Dry-Bulb Temperature Range {deltaC}
  88961,                                  !- Barometric Pressure {Pa}
  2.7,                                    !- Wind Speed {m/s}
  200,                                    !- Wind Direction {deg}
  0,                                      !- Sky Clearness
  No,                                     !- Rain Indicator
  No,                                     !- Snow Indicator
  21,                                     !- Day of Month
  1,                                      !- Month
  WinterDesignDay,                        !- Day Type
  No,                                     !- Daylight Saving Time Indicator
  Wetbulb,                                !- Humidity Condition Type
  ,                                       !- Humidity Condition Day Schedule Name
  -27.7,                                  !- Wetbulb or DewPoint at Maximum Dry-Bulb {C}
  ,                                       !- Humidity Ratio at Maximum Dry-Bulb {kgWater/kgDryAir}
  ,                                       !- Enthalpy at Maximum Dry-Bulb {J/kg}
  DefaultMultipliers,                     !- Dry-Bulb Temperature Range Modifier Type
  ,                                       !- Dry-Bulb Temperature Range Modifier Day Schedule Name
  ASHRAEClearSky;                         !- Solar Model Indicator

OS:ClimateZones,
  {844d8b73-eff5-4970-b8e0-d94a9d5ee4b6}, !- Handle
  ASHRAE,                                 !- Climate Zone Institution Name 1
  ANSI/ASHRAE Standard 169,               !- Climate Zone Document Name 1
  2006,                                   !- Climate Zone Document Year 1
  7;                                      !- Climate Zone Value 1

OS:Site:GroundTemperature:Shallow,
  {19cdc27e-8121-4d72-a207-29a4e233a6f4}, !- Handle
  -1.6,                                   !- January Surface Ground Temperature {C}
  -5.4,                                   !- February Surface Ground Temperature {C}
  -6.4,                                   !- March Surface Ground Temperature {C}
  -5.5,                                   !- April Surface Ground Temperature {C}
  -0.4,                                   !- May Surface Ground Temperature {C}
  5.3,                                    !- June Surface Ground Temperature {C}
  10.8,                                   !- July Surface Ground Temperature {C}
  14.7,                                   !- August Surface Ground Temperature {C}
  15.8,                                   !- September Surface Ground Temperature {C}
  14,                                     !- October Surface Ground Temperature {C}
  9.5,                                    !- November Surface Ground Temperature {C}
  4;                                      !- December Surface Ground Temperature {C}

OS:Site:GroundTemperature:Deep,
  {90380072-cc5f-4f74-a16c-4e5a25ffb94a}, !- Handle
  4,                                      !- January Deep Ground Temperature {C}
  1.3,                                    !- February Deep Ground Temperature {C}
  -0.4,                                   !- March Deep Ground Temperature {C}
  -0.9,                                   !- April Deep Ground Temperature {C}
  0.1,                                    !- May Deep Ground Temperature {C}
  2.3,                                    !- June Deep Ground Temperature {C}
  5.2,                                    !- July Deep Ground Temperature {C}
  8,                                      !- August Deep Ground Temperature {C}
  9.9,                                    !- September Deep Ground Temperature {C}
  10.3,                                   !- October Deep Ground Temperature {C}
  9.2,                                    !- November Deep Ground Temperature {C}
  7;                                      !- December Deep Ground Temperature {C}

OS:Site:GroundTemperature:FCfactorMethod,
  {a6cd93dc-a413-4a3f-9249-e0cb050e009c}, !- Handle
  5.5,                                    !- January Ground Temperature {C}
  -2,                                     !- February Ground Temperature {C}
  -7.6,                                   !- March Ground Temperature {C}
  -6.3,                                   !- April Ground Temperature {C}
  -6.6,                                   !- May Ground Temperature {C}
  -0.3,                                   !- June Ground Temperature {C}
  4.9,                                    !- July Ground Temperature {C}
  10.2,                                   !- August Ground Temperature {C}
  13.8,                                   !- September Ground Temperature {C}
  17,                                     !- October Ground Temperature {C}
  16.6,                                   !- November Ground Temperature {C}
  11.1;                                   !- December Ground Temperature {C}

OS:AdditionalProperties,
  {39e4eb58-84c4-4f69-ab04-0f5b36da0c18}, !- Handle
  {a6d9b45b-2723-43c6-8355-1e3d52bed681}, !- Object Name
  space_conditioning_category,            !- Feature Name 1
  String,                                 !- Feature Data Type 1
  unconditioned;                          !- Feature Value 1

OS:AdditionalProperties,
  {1d6ea9b7-fe9c-4717-9ce3-cdbdaee99168}, !- Handle
  {d48cb50c-3a07-4ed6-baac-fe451a3f5495}, !- Object Name
  space_conditioning_category,            !- Feature Name 1
  String,                                 !- Feature Data Type 1
  nonresconditioned;                      !- Feature Value 1

OS:AdditionalProperties,
  {50464183-b85d-46da-9b1a-480c72de3ae6}, !- Handle
  {77d3cfbe-7d30-4aaf-86db-75976a798830}, !- Object Name
  space_conditioning_category,            !- Feature Name 1
  String,                                 !- Feature Data Type 1
  nonresconditioned;                      !- Feature Value 1

OS:AdditionalProperties,
  {bd6e6433-c8b6-41a9-8b5d-b7c1ab984b05}, !- Handle
  {57a0612b-80fa-4a4f-8704-b192e6d39f92}; !- Object Name

OS:Rendering:Color,
  {8103f483-7aa5-436b-a765-ef8a88dd671b}, !- Handle
  Space Function - undefined - 1,         !- Name
  255,                                    !- Rendering Red Value
  255,                                    !- Rendering Green Value
  255;                                    !- Rendering Blue Value

OS:DesignSpecification:OutdoorAir,
  {7d22e281-4c19-4070-95b5-1d0fa038bc55}, !- Handle
  Space Function - undefined - Ventilation, !- Name
  ,                                       !- Outdoor Air Method
  0,                                      !- Outdoor Air Flow per Person {m3/s-person}
  0,                                      !- Outdoor Air Flow per Floor Area {m3/s-m2}
  ,                                       !- Outdoor Air Flow Rate {m3/s}
  0,                                      !- Outdoor Air Flow Air Changes per Hour {1/hr}
  ;                                       !- Outdoor Air Flow Rate Fraction Schedule Name

OS:DefaultScheduleSet,
  {3245365f-c91c-487b-a40c-9f78e41e397a}, !- Handle
  Space Function - undefined - Schedule Set, !- Name
  ,                                       !- Hours of Operation Schedule Name
  ,                                       !- Number of People Schedule Name
  ,                                       !- People Activity Level Schedule Name
  ,                                       !- Lighting Schedule Name
  ,                                       !- Electric Equipment Schedule Name
  ,                                       !- Gas Equipment Schedule Name
  ,                                       !- Hot Water Equipment Schedule Name
  ,                                       !- Infiltration Schedule Name
  ,                                       !- Steam Equipment Schedule Name
  ;                                       !- Other Equipment Schedule Name

OS:ThermostatSetpoint:DualSetpoint,
  {43b4d8ef-973a-402d-848d-5e6adb05b5b6}, !- Handle
  Space Function - undefined - Thermostat; !- Name

OS:Rendering:Color,
  {273161c1-2f82-4645-b191-92c8a86abd0a}, !- Handle
  Space Function Dining - family space 1, !- Name
  255,                                    !- Rendering Red Value
  255,                                    !- Rendering Green Value
  255;                                    !- Rendering Blue Value

OS:People:Definition,
  {68645b66-5f6d-4bf1-9d22-270faf903105}, !- Handle
  Space Function Dining - family space People Definition, !- Name
  People/Area,                            !- Number of People Calculation Method
  ,                                       !- Number of People {people}
  0.0999967277712333,                     !- People per Space Floor Area {person/m2}
  ,                                       !- Space Floor Area per Person {m2/person}
  0.3;                                    !- Fraction Radiant

OS:People,
  {3fd9e002-da24-4c12-b034-d1ad3182f086}, !- Handle
  Space Function Dining - family space People, !- Name
  {68645b66-5f6d-4bf1-9d22-270faf903105}, !- People Definition Name
  {74d79ecf-87d4-4cbb-ba37-86cfde5c20bb}, !- Space or SpaceType Name
  ,                                       !- Number of People Schedule Name
  ,                                       !- Activity Level Schedule Name
  ,                                       !- Surface Name/Angle Factor List Name
  {9044eb9f-f373-4cbe-9f38-633d820975c2}, !- Work Efficiency Schedule Name
  {466377a3-3053-4bd2-ad41-34930273ab44}, !- Clothing Insulation Schedule Name
  {41bbd679-912b-4479-86fb-1d2ee95e94b5}, !- Air Velocity Schedule Name
  1;                                      !- Multiplier

OS:Schedule:Ruleset,
  {466377a3-3053-4bd2-ad41-34930273ab44}, !- Handle
  Clothing Schedule,                      !- Name
  {7e880dd4-94a7-4aaf-a569-d703b84338a7}, !- Schedule Type Limits Name
  {916b5679-6da8-49fb-bec5-cdbef96140f7}; !- Default Day Schedule Name

OS:Schedule:Day,
  {916b5679-6da8-49fb-bec5-cdbef96140f7}, !- Handle
  Clothing Schedule Default Winter Clothes, !- Name
  {7e880dd4-94a7-4aaf-a569-d703b84338a7}, !- Schedule Type Limits Name
  ,                                       !- Interpolate to Timestep
  24,                                     !- Hour 1
  0,                                      !- Minute 1
  1;                                      !- Value Until Time 1

OS:Schedule:Rule,
  {c33ef4f1-32b3-49f2-9052-86d7814b0315}, !- Handle
  Schedule Rule 1,                        !- Name
  {466377a3-3053-4bd2-ad41-34930273ab44}, !- Schedule Ruleset Name
  0,                                      !- Rule Order
  {54bf426e-2bb8-4b36-aac5-42c55fdfb411}, !- Day Schedule Name
  ,                                       !- Apply Sunday
  ,                                       !- Apply Monday
  ,                                       !- Apply Tuesday
  ,                                       !- Apply Wednesday
  ,                                       !- Apply Thursday
  ,                                       !- Apply Friday
  ,                                       !- Apply Saturday
  DateRange,                              !- Date Specification Type
  5,                                      !- Start Month
  1,                                      !- Start Day
  9,                                      !- End Month
  30;                                     !- End Day

OS:Schedule:Day,
  {54bf426e-2bb8-4b36-aac5-42c55fdfb411}, !- Handle
  Clothing Schedule Summer Clothes,       !- Name
  {7e880dd4-94a7-4aaf-a569-d703b84338a7}, !- Schedule Type Limits Name
  ,                                       !- Interpolate to Timestep
  24,                                     !- Hour 1
  0,                                      !- Minute 1
  0.5;                                    !- Value Until Time 1

OS:ScheduleTypeLimits,
  {7e880dd4-94a7-4aaf-a569-d703b84338a7}, !- Handle
  ClothingInsulation,                     !- Name
  0,                                      !- Lower Limit Value
  ,                                       !- Upper Limit Value
  Continuous,                             !- Numeric Type
  ClothingInsulation;                     !- Unit Type

OS:Schedule:Ruleset,
  {41bbd679-912b-4479-86fb-1d2ee95e94b5}, !- Handle
  Air Velocity Schedule,                  !- Name
  {1485e81b-5a86-42b0-a236-d8aa988a0932}, !- Schedule Type Limits Name
  {55c7f04b-62f8-4476-b50b-1ca2d33d3dc9}; !- Default Day Schedule Name

OS:Schedule:Day,
  {55c7f04b-62f8-4476-b50b-1ca2d33d3dc9}, !- Handle
  Air Velocity Schedule Default,          !- Name
  {1485e81b-5a86-42b0-a236-d8aa988a0932}, !- Schedule Type Limits Name
  ,                                       !- Interpolate to Timestep
  24,                                     !- Hour 1
  0,                                      !- Minute 1
  0.2;                                    !- Value Until Time 1

OS:ScheduleTypeLimits,
  {1485e81b-5a86-42b0-a236-d8aa988a0932}, !- Handle
  Velocity,                               !- Name
  0,                                      !- Lower Limit Value
  ,                                       !- Upper Limit Value
  Continuous,                             !- Numeric Type
  Velocity;                               !- Unit Type

OS:Schedule:Ruleset,
  {9044eb9f-f373-4cbe-9f38-633d820975c2}, !- Handle
  Work Efficiency Schedule,               !- Name
  {4b1a36e6-fc19-46bb-9c96-5234782eee7f}, !- Schedule Type Limits Name
  {bba34643-6a4f-47c0-b165-d4314a19e9be}; !- Default Day Schedule Name

OS:Schedule:Day,
  {bba34643-6a4f-47c0-b165-d4314a19e9be}, !- Handle
  Work Efficiency Schedule Default,       !- Name
  {4b1a36e6-fc19-46bb-9c96-5234782eee7f}, !- Schedule Type Limits Name
  ,                                       !- Interpolate to Timestep
  24,                                     !- Hour 1
  0,                                      !- Minute 1
  0;                                      !- Value Until Time 1

OS:ScheduleTypeLimits,
  {4b1a36e6-fc19-46bb-9c96-5234782eee7f}, !- Handle
  Fractional,                             !- Name
  0,                                      !- Lower Limit Value
  1,                                      !- Upper Limit Value
  Continuous;                             !- Numeric Type

OS:Lights:Definition,
  {785260f6-475c-4192-96d8-1ab4896626b3}, !- Handle
  Space Function Dining - family space Lights Definition, !- Name
  Watts/Area,                             !- Design Level Calculation Method
  ,                                       !- Lighting Level {W}
  9.59992009949298,                       !- Watts per Space Floor Area {W/m2}
  ,                                       !- Watts per Person {W/person}
  0.5,                                    !- Fraction Radiant
  0.2;                                    !- Fraction Visible

OS:Lights,
  {2f7fc044-a567-4c84-8036-13e72f9ae628}, !- Handle
  Space Function Dining - family space Lights, !- Name
  {785260f6-475c-4192-96d8-1ab4896626b3}, !- Lights Definition Name
  {74d79ecf-87d4-4cbb-ba37-86cfde5c20bb}, !- Space or SpaceType Name
  ,                                       !- Schedule Name
  1,                                      !- Fraction Replaceable
  ,                                       !- Multiplier
  General;                                !- End-Use Subcategory

OS:ElectricEquipment:Definition,
  {82ea2b9a-85bd-40a5-9064-45b074c2544f}, !- Handle
  Space Function Dining - family space Elec Equip Definition, !- Name
  Watts/Area,                             !- Design Level Calculation Method
  ,                                       !- Design Level {W}
  0.999991679497248,                      !- Watts per Space Floor Area {W/m2}
  ,                                       !- Watts per Person {W/person}
  ,                                       !- Fraction Latent
  0.5;                                    !- Fraction Radiant

OS:ElectricEquipment,
  {abc252d9-2672-470a-b414-18e2ae056e47}, !- Handle
  Space Function Dining - family space Elec Equip, !- Name
  {82ea2b9a-85bd-40a5-9064-45b074c2544f}, !- Electric Equipment Definition Name
  {74d79ecf-87d4-4cbb-ba37-86cfde5c20bb}, !- Space or SpaceType Name
  ,                                       !- Schedule Name
  ,                                       !- Multiplier
  General;                                !- End-Use Subcategory

OS:DesignSpecification:OutdoorAir,
  {dbdebf6e-4a24-4a5e-87f9-5a090708cf6d}, !- Handle
  Space Function Dining - family space Ventilation, !- Name
  Sum,                                    !- Outdoor Air Method
  0.071122327285253,                      !- Outdoor Air Flow per Person {m3/s-person}
  ,                                       !- Outdoor Air Flow per Floor Area {m3/s-m2}
  ,                                       !- Outdoor Air Flow Rate {m3/s}
  ,                                       !- Outdoor Air Flow Air Changes per Hour {1/hr}
  ;                                       !- Outdoor Air Flow Rate Fraction Schedule Name

OS:DefaultScheduleSet,
  {86c8efff-77c8-44b1-b9bb-8e775d721858}, !- Handle
  Space Function Dining - family space Schedule Set, !- Name
  ,                                       !- Hours of Operation Schedule Name
  {519ac816-8d31-46ce-9c2f-8ab784eff7f5}, !- Number of People Schedule Name
  {ea4912d5-4690-4040-befb-d0adfeb743ae}, !- People Activity Level Schedule Name
  {b40898fc-471c-483c-aab8-2f75b65c1afc}, !- Lighting Schedule Name
  {cc2d433e-f8b0-418a-8e16-ae05e5ec9486}, !- Electric Equipment Schedule Name
  ,                                       !- Gas Equipment Schedule Name
  ,                                       !- Hot Water Equipment Schedule Name
  ,                                       !- Infiltration Schedule Name
  ,                                       !- Steam Equipment Schedule Name
  ;                                       !- Other Equipment Schedule Name

OS:Schedule:Ruleset,
  {519ac816-8d31-46ce-9c2f-8ab784eff7f5}, !- Handle
  NECB-B-Occupancy,                       !- Name
  {4b1a36e6-fc19-46bb-9c96-5234782eee7f}, !- Schedule Type Limits Name
  {c76badf6-62de-4eba-9fa7-207cd73ecdbc}; !- Default Day Schedule Name

OS:Schedule:Day,
  {c76badf6-62de-4eba-9fa7-207cd73ecdbc}, !- Handle
  NECB-B-Occupancy Default,               !- Name
  {4b1a36e6-fc19-46bb-9c96-5234782eee7f}, !- Schedule Type Limits Name
  No,                                     !- Interpolate to Timestep
  1,                                      !- Hour 1
  0,                                      !- Minute 1
  0.3,                                    !- Value Until Time 1
  2,                                      !- Hour 2
  0,                                      !- Minute 2
  0.1,                                    !- Value Until Time 2
  9,                                      !- Hour 3
  0,                                      !- Minute 3
  0,                                      !- Value Until Time 3
  10,                                     !- Hour 4
  0,                                      !- Minute 4
  0.1,                                    !- Value Until Time 4
  11,                                     !- Hour 5
  0,                                      !- Minute 5
  0.2,                                    !- Value Until Time 5
  12,                                     !- Hour 6
  0,                                      !- Minute 6
  0.5,                                    !- Value Until Time 6
  13,                                     !- Hour 7
  0,                                      !- Minute 7
  0.9,                                    !- Value Until Time 7
  14,                                     !- Hour 8
  0,                                      !- Minute 8
  0.8,                                    !- Value Until Time 8
  15,                                     !- Hour 9
  0,                                      !- Minute 9
  0.5,                                    !- Value Until Time 9
  17,                                     !- Hour 10
  0,                                      !- Minute 10
  0.2,                                    !- Value Until Time 10
  18,                                     !- Hour 11
  0,                                      !- Minute 11
  0.3,                                    !- Value Until Time 11
  19,                                     !- Hour 12
  0,                                      !- Minute 12
  0.6,                                    !- Value Until Time 12
  22,                                     !- Hour 13
  0,                                      !- Minute 13
  0.9,                                    !- Value Until Time 13
  23,                                     !- Hour 14
  0,                                      !- Minute 14
  0.6,                                    !- Value Until Time 14
  24,                                     !- Hour 15
  0,                                      !- Minute 15
  0.4;                                    !- Value Until Time 15

OS:Schedule:Rule,
  {3ce9e5e7-cf19-4d55-8d72-7ba141f30519}, !- Handle
  Schedule Rule 2,                        !- Name
  {519ac816-8d31-46ce-9c2f-8ab784eff7f5}, !- Schedule Ruleset Name
  2,                                      !- Rule Order
  {6a61f8a0-1e95-41b5-abb9-1edab46ba7f3}, !- Day Schedule Name
  ,                                       !- Apply Sunday
  Yes,                                    !- Apply Monday
  Yes,                                    !- Apply Tuesday
  Yes,                                    !- Apply Wednesday
  Yes,                                    !- Apply Thursday
  Yes,                                    !- Apply Friday
  ,                                       !- Apply Saturday
  DateRange,                              !- Date Specification Type
  1,                                      !- Start Month
  1,                                      !- Start Day
  12,                                     !- End Month
  31;                                     !- End Day

OS:Schedule:Day,
  {6a61f8a0-1e95-41b5-abb9-1edab46ba7f3}, !- Handle
  NECB-B-Occupancy Default|Wkdy Day,      !- Name
  {4b1a36e6-fc19-46bb-9c96-5234782eee7f}, !- Schedule Type Limits Name
  No,                                     !- Interpolate to Timestep
  1,                                      !- Hour 1
  0,                                      !- Minute 1
  0.3,                                    !- Value Until Time 1
  2,                                      !- Hour 2
  0,                                      !- Minute 2
  0.1,                                    !- Value Until Time 2
  9,                                      !- Hour 3
  0,                                      !- Minute 3
  0,                                      !- Value Until Time 3
  10,                                     !- Hour 4
  0,                                      !- Minute 4
  0.1,                                    !- Value Until Time 4
  11,                                     !- Hour 5
  0,                                      !- Minute 5
  0.2,                                    !- Value Until Time 5
  12,                                     !- Hour 6
  0,                                      !- Minute 6
  0.5,                                    !- Value Until Time 6
  13,                                     !- Hour 7
  0,                                      !- Minute 7
  0.9,                                    !- Value Until Time 7
  14,                                     !- Hour 8
  0,                                      !- Minute 8
  0.8,                                    !- Value Until Time 8
  15,                                     !- Hour 9
  0,                                      !- Minute 9
  0.5,                                    !- Value Until Time 9
  17,                                     !- Hour 10
  0,                                      !- Minute 10
  0.2,                                    !- Value Until Time 10
  18,                                     !- Hour 11
  0,                                      !- Minute 11
  0.3,                                    !- Value Until Time 11
  19,                                     !- Hour 12
  0,                                      !- Minute 12
  0.6,                                    !- Value Until Time 12
  22,                                     !- Hour 13
  0,                                      !- Minute 13
  0.9,                                    !- Value Until Time 13
  23,                                     !- Hour 14
  0,                                      !- Minute 14
  0.6,                                    !- Value Until Time 14
  24,                                     !- Hour 15
  0,                                      !- Minute 15
  0.4;                                    !- Value Until Time 15

OS:Schedule:Rule,
  {f1291a10-4af5-4c15-8dc0-7a049a599ade}, !- Handle
  Schedule Rule 3,                        !- Name
  {519ac816-8d31-46ce-9c2f-8ab784eff7f5}, !- Schedule Ruleset Name
  1,                                      !- Rule Order
  {9350fb2c-9e7a-4f4b-b4b2-434366aba76a}, !- Day Schedule Name
  ,                                       !- Apply Sunday
  ,                                       !- Apply Monday
  ,                                       !- Apply Tuesday
  ,                                       !- Apply Wednesday
  ,                                       !- Apply Thursday
  ,                                       !- Apply Friday
  Yes,                                    !- Apply Saturday
  DateRange,                              !- Date Specification Type
  1,                                      !- Start Month
  1,                                      !- Start Day
  12,                                     !- End Month
  31;                                     !- End Day

OS:Schedule:Day,
  {9350fb2c-9e7a-4f4b-b4b2-434366aba76a}, !- Handle
  NECB-B-Occupancy Sat Day,               !- Name
  {4b1a36e6-fc19-46bb-9c96-5234782eee7f}, !- Schedule Type Limits Name
  No,                                     !- Interpolate to Timestep
  1,                                      !- Hour 1
  0,                                      !- Minute 1
  0.5,                                    !- Value Until Time 1
  2,                                      !- Hour 2
  0,                                      !- Minute 2
  0.3,                                    !- Value Until Time 2
  9,                                      !- Hour 3
  0,                                      !- Minute 3
  0,                                      !- Value Until Time 3
  10,                                     !- Hour 4
  0,                                      !- Minute 4
  0.1,                                    !- Value Until Time 4
  11,                                     !- Hour 5
  0,                                      !- Minute 5
  0.2,                                    !- Value Until Time 5
  12,                                     !- Hour 6
  0,                                      !- Minute 6
  0.5,                                    !- Value Until Time 6
  13,                                     !- Hour 7
  0,                                      !- Minute 7
  0.9,                                    !- Value Until Time 7
  14,                                     !- Hour 8
  0,                                      !- Minute 8
  0.8,                                    !- Value Until Time 8
  15,                                     !- Hour 9
  0,                                      !- Minute 9
  0.5,                                    !- Value Until Time 9
  17,                                     !- Hour 10
  0,                                      !- Minute 10
  0.2,                                    !- Value Until Time 10
  18,                                     !- Hour 11
  0,                                      !- Minute 11
  0.3,                                    !- Value Until Time 11
  19,                                     !- Hour 12
  0,                                      !- Minute 12
  0.6,                                    !- Value Until Time 12
  22,                                     !- Hour 13
  0,                                      !- Minute 13
  0.9,                                    !- Value Until Time 13
  24,                                     !- Hour 14
  0,                                      !- Minute 14
  0.6;                                    !- Value Until Time 14

OS:Schedule:Rule,
  {8e529367-0e18-41ba-91e5-4fbf51ce067a}, !- Handle
  Schedule Rule 4,                        !- Name
  {519ac816-8d31-46ce-9c2f-8ab784eff7f5}, !- Schedule Ruleset Name
  0,                                      !- Rule Order
  {76e70f0a-e966-4963-8a06-4c02108f88f6}, !- Day Schedule Name
  Yes,                                    !- Apply Sunday
  ,                                       !- Apply Monday
  ,                                       !- Apply Tuesday
  ,                                       !- Apply Wednesday
  ,                                       !- Apply Thursday
  ,                                       !- Apply Friday
  ,                                       !- Apply Saturday
  DateRange,                              !- Date Specification Type
  1,                                      !- Start Month
  1,                                      !- Start Day
  12,                                     !- End Month
  31;                                     !- End Day

OS:Schedule:Day,
  {76e70f0a-e966-4963-8a06-4c02108f88f6}, !- Handle
  NECB-B-Occupancy Sun|Hol Day,           !- Name
  {4b1a36e6-fc19-46bb-9c96-5234782eee7f}, !- Schedule Type Limits Name
  No,                                     !- Interpolate to Timestep
  1,                                      !- Hour 1
  0,                                      !- Minute 1
  0.1,                                    !- Value Until Time 1
  2,                                      !- Hour 2
  0,                                      !- Minute 2
  0.3,                                    !- Value Until Time 2
  10,                                     !- Hour 3
  0,                                      !- Minute 3
  0,                                      !- Value Until Time 3
  11,                                     !- Hour 4
  0,                                      !- Minute 4
  0.1,                                    !- Value Until Time 4
  12,                                     !- Hour 5
  0,                                      !- Minute 5
  0.4,                                    !- Value Until Time 5
  14,                                     !- Hour 6
  0,                                      !- Minute 6
  0.5,                                    !- Value Until Time 6
  15,                                     !- Hour 7
  0,                                      !- Minute 7
  0.4,                                    !- Value Until Time 7
  18,                                     !- Hour 8
  0,                                      !- Minute 8
  0.2,                                    !- Value Until Time 8
  19,                                     !- Hour 9
  0,                                      !- Minute 9
  0.5,                                    !- Value Until Time 9
  21,                                     !- Hour 10
  0,                                      !- Minute 10
  0.7,                                    !- Value Until Time 10
  22,                                     !- Hour 11
  0,                                      !- Minute 11
  0.5,                                    !- Value Until Time 11
  23,                                     !- Hour 12
  0,                                      !- Minute 12
  0.3,                                    !- Value Until Time 12
  24,                                     !- Hour 13
  0,                                      !- Minute 13
  0.1;                                    !- Value Until Time 13

OS:Schedule:Ruleset,
  {ea4912d5-4690-4040-befb-d0adfeb743ae}, !- Handle
  NECB-Activity,                          !- Name
  {61e5a3d6-f7a3-407c-9bbd-512f2a0abead}, !- Schedule Type Limits Name
  {addab5d8-69ec-4768-8cd7-c8f3f08c95fe}, !- Default Day Schedule Name
  {3141957f-40a9-411f-88c8-61ad0ae90cd1}, !- Summer Design Day Schedule Name
  {92ff0df0-2a71-4ae9-97cf-21381817b8bd}; !- Winter Design Day Schedule Name

OS:Schedule:Day,
  {addab5d8-69ec-4768-8cd7-c8f3f08c95fe}, !- Handle
  NECB-Activity Default,                  !- Name
  {61e5a3d6-f7a3-407c-9bbd-512f2a0abead}, !- Schedule Type Limits Name
  No,                                     !- Interpolate to Timestep
  24,                                     !- Hour 1
  0,                                      !- Minute 1
  130;                                    !- Value Until Time 1

OS:Schedule:Day,
  {693dd3b4-53d9-4ded-985b-6dfa1b56f518}, !- Handle
  Schedule Day 1,                         !- Name
  ,                                       !- Schedule Type Limits Name
  ,                                       !- Interpolate to Timestep
  24,                                     !- Hour 1
  0,                                      !- Minute 1
  0;                                      !- Value Until Time 1

OS:Schedule:Day,
  {92ff0df0-2a71-4ae9-97cf-21381817b8bd}, !- Handle
  NECB-Activity Winter Design Day,        !- Name
  {61e5a3d6-f7a3-407c-9bbd-512f2a0abead}, !- Schedule Type Limits Name
  No,                                     !- Interpolate to Timestep
  24,                                     !- Hour 1
  0,                                      !- Minute 1
  130;                                    !- Value Until Time 1

OS:Schedule:Day,
  {30354a27-49fb-4e5f-9f85-c16f8ebc4c86}, !- Handle
  Schedule Day 2,                         !- Name
  ,                                       !- Schedule Type Limits Name
  ,                                       !- Interpolate to Timestep
  24,                                     !- Hour 1
  0,                                      !- Minute 1
  0;                                      !- Value Until Time 1

OS:Schedule:Day,
  {3141957f-40a9-411f-88c8-61ad0ae90cd1}, !- Handle
  NECB-Activity Summer Design Day,        !- Name
  {61e5a3d6-f7a3-407c-9bbd-512f2a0abead}, !- Schedule Type Limits Name
  No,                                     !- Interpolate to Timestep
  24,                                     !- Hour 1
  0,                                      !- Minute 1
  130;                                    !- Value Until Time 1

OS:ScheduleTypeLimits,
  {61e5a3d6-f7a3-407c-9bbd-512f2a0abead}, !- Handle
  ActivityLevel,                          !- Name
  0,                                      !- Lower Limit Value
  ,                                       !- Upper Limit Value
  Continuous,                             !- Numeric Type
  ActivityLevel;                          !- Unit Type

OS:Schedule:Ruleset,
  {b40898fc-471c-483c-aab8-2f75b65c1afc}, !- Handle
  NECB-B-Lighting,                        !- Name
  {4b1a36e6-fc19-46bb-9c96-5234782eee7f}, !- Schedule Type Limits Name
  {cd383c5c-0d1c-4065-88fc-a77c5dc04379}; !- Default Day Schedule Name

OS:Schedule:Day,
  {cd383c5c-0d1c-4065-88fc-a77c5dc04379}, !- Handle
  NECB-B-Lighting Default,                !- Name
  {4b1a36e6-fc19-46bb-9c96-5234782eee7f}, !- Schedule Type Limits Name
  No,                                     !- Interpolate to Timestep
  1,                                      !- Hour 1
  0,                                      !- Minute 1
  0.9,                                    !- Value Until Time 1
  2,                                      !- Hour 2
  0,                                      !- Minute 2
  0.5,                                    !- Value Until Time 2
  9,                                      !- Hour 3
  0,                                      !- Minute 3
  0.1,                                    !- Value Until Time 3
  10,                                     !- Hour 4
  0,                                      !- Minute 4
  0.5,                                    !- Value Until Time 4
  11,                                     !- Hour 5
  0,                                      !- Minute 5
  0.7,                                    !- Value Until Time 5
  24,                                     !- Hour 6
  0,                                      !- Minute 6
  0.9;                                    !- Value Until Time 6

OS:Schedule:Rule,
  {2d098960-c305-4bbb-84aa-fab4eb77093a}, !- Handle
  Schedule Rule 5,                        !- Name
  {b40898fc-471c-483c-aab8-2f75b65c1afc}, !- Schedule Ruleset Name
  2,                                      !- Rule Order
  {5342bf7d-c1da-48fc-916e-921271b76690}, !- Day Schedule Name
  ,                                       !- Apply Sunday
  Yes,                                    !- Apply Monday
  Yes,                                    !- Apply Tuesday
  Yes,                                    !- Apply Wednesday
  Yes,                                    !- Apply Thursday
  Yes,                                    !- Apply Friday
  ,                                       !- Apply Saturday
  DateRange,                              !- Date Specification Type
  1,                                      !- Start Month
  1,                                      !- Start Day
  12,                                     !- End Month
  31;                                     !- End Day

OS:Schedule:Day,
  {5342bf7d-c1da-48fc-916e-921271b76690}, !- Handle
  NECB-B-Lighting Default|Wkdy Day,       !- Name
  {4b1a36e6-fc19-46bb-9c96-5234782eee7f}, !- Schedule Type Limits Name
  No,                                     !- Interpolate to Timestep
  1,                                      !- Hour 1
  0,                                      !- Minute 1
  0.9,                                    !- Value Until Time 1
  2,                                      !- Hour 2
  0,                                      !- Minute 2
  0.5,                                    !- Value Until Time 2
  9,                                      !- Hour 3
  0,                                      !- Minute 3
  0.1,                                    !- Value Until Time 3
  10,                                     !- Hour 4
  0,                                      !- Minute 4
  0.5,                                    !- Value Until Time 4
  11,                                     !- Hour 5
  0,                                      !- Minute 5
  0.7,                                    !- Value Until Time 5
  24,                                     !- Hour 6
  0,                                      !- Minute 6
  0.9;                                    !- Value Until Time 6

OS:Schedule:Rule,
  {8c892fbd-614e-4607-b165-f69791606bc7}, !- Handle
  Schedule Rule 6,                        !- Name
  {b40898fc-471c-483c-aab8-2f75b65c1afc}, !- Schedule Ruleset Name
  1,                                      !- Rule Order
  {81270577-79d5-4f83-9a96-77a6f0c5ade9}, !- Day Schedule Name
  ,                                       !- Apply Sunday
  ,                                       !- Apply Monday
  ,                                       !- Apply Tuesday
  ,                                       !- Apply Wednesday
  ,                                       !- Apply Thursday
  ,                                       !- Apply Friday
  Yes,                                    !- Apply Saturday
  DateRange,                              !- Date Specification Type
  1,                                      !- Start Month
  1,                                      !- Start Day
  12,                                     !- End Month
  31;                                     !- End Day

OS:Schedule:Day,
  {81270577-79d5-4f83-9a96-77a6f0c5ade9}, !- Handle
  NECB-B-Lighting Sat Day,                !- Name
  {4b1a36e6-fc19-46bb-9c96-5234782eee7f}, !- Schedule Type Limits Name
  No,                                     !- Interpolate to Timestep
  1,                                      !- Hour 1
  0,                                      !- Minute 1
  0.9,                                    !- Value Until Time 1
  2,                                      !- Hour 2
  0,                                      !- Minute 2
  0.5,                                    !- Value Until Time 2
  9,                                      !- Hour 3
  0,                                      !- Minute 3
  0.1,                                    !- Value Until Time 3
  10,                                     !- Hour 4
  0,                                      !- Minute 4
  0.5,                                    !- Value Until Time 4
  11,                                     !- Hour 5
  0,                                      !- Minute 5
  0.7,                                    !- Value Until Time 5
  24,                                     !- Hour 6
  0,                                      !- Minute 6
  0.9;                                    !- Value Until Time 6

OS:Schedule:Rule,
  {69a2d9ea-965b-4d28-b2c6-3c3be001d4ed}, !- Handle
  Schedule Rule 7,                        !- Name
  {b40898fc-471c-483c-aab8-2f75b65c1afc}, !- Schedule Ruleset Name
  0,                                      !- Rule Order
  {74561a66-c6e2-46a4-8357-08bfa830d9b3}, !- Day Schedule Name
  Yes,                                    !- Apply Sunday
  ,                                       !- Apply Monday
  ,                                       !- Apply Tuesday
  ,                                       !- Apply Wednesday
  ,                                       !- Apply Thursday
  ,                                       !- Apply Friday
  ,                                       !- Apply Saturday
  DateRange,                              !- Date Specification Type
  1,                                      !- Start Month
  1,                                      !- Start Day
  12,                                     !- End Month
  31;                                     !- End Day

OS:Schedule:Day,
  {74561a66-c6e2-46a4-8357-08bfa830d9b3}, !- Handle
  NECB-B-Lighting Sun|Hol Day,            !- Name
  {4b1a36e6-fc19-46bb-9c96-5234782eee7f}, !- Schedule Type Limits Name
  No,                                     !- Interpolate to Timestep
  2,                                      !- Hour 1
  0,                                      !- Minute 1
  0.5,                                    !- Value Until Time 1
  10,                                     !- Hour 2
  0,                                      !- Minute 2
  0.1,                                    !- Value Until Time 2
  11,                                     !- Hour 3
  0,                                      !- Minute 3
  0.5,                                    !- Value Until Time 3
  23,                                     !- Hour 4
  0,                                      !- Minute 4
  0.9,                                    !- Value Until Time 4
  24,                                     !- Hour 5
  0,                                      !- Minute 5
  0.5;                                    !- Value Until Time 5

OS:Schedule:Ruleset,
  {cc2d433e-f8b0-418a-8e16-ae05e5ec9486}, !- Handle
  NECB-B-Electric-Equipment,              !- Name
  {4b1a36e6-fc19-46bb-9c96-5234782eee7f}, !- Schedule Type Limits Name
  {41eb1eeb-6a1e-49a0-898d-d202a08c56cf}; !- Default Day Schedule Name

OS:Schedule:Day,
  {41eb1eeb-6a1e-49a0-898d-d202a08c56cf}, !- Handle
  NECB-B-Electric-Equipment Default,      !- Name
  {4b1a36e6-fc19-46bb-9c96-5234782eee7f}, !- Schedule Type Limits Name
  No,                                     !- Interpolate to Timestep
[...]
  0,                                      !- Minute 3
  1;                                      !- Value Until Time 3

OS:AdditionalProperties,
  {a787421f-604e-4536-8744-c5b2892ba0c4}, !- Handle
  {3316fe6f-94ed-40c4-86f1-50ca2f7f988f}, !- Object Name
  max_occ_in_spaces,                      !- Feature Name 1
  Double,                                 !- Feature Data Type 1
  37.173590704266502,                     !- Feature Value 1
  number_of_spaces_included,              !- Feature Name 2
  Integer,                                !- Feature Data Type 2
  1,                                      !- Feature Value 2
  date_parent_object_last_edited,         !- Feature Name 3
  String,                                 !- Feature Data Type 3
  2025-10-15 17:24:35 UTC,                !- Feature Value 3
  date_parent_object_created,             !- Feature Name 4
  String,                                 !- Feature Data Type 4
  2025-10-15 17:24:35 UTC;                !- Feature Value 4

OS:Schedule:Day,
  {d630bc33-dc56-42f7-98a2-1be953a6353f}, !- Handle
  sys_3|mixed|shr>none|sc>dx|sh>c-e|ssf>cv|zh>b-hw|zc>none|srf>none| Occ Sch Winter Design Day, !- Name
  {4b1a36e6-fc19-46bb-9c96-5234782eee7f}, !- Schedule Type Limits Name
  ,                                       !- Interpolate to Timestep
  24,                                     !- Hour 1
  0,                                      !- Minute 1
  1;                                      !- Value Until Time 1

OS:Schedule:Day,
  {6c6dad05-40ee-4503-b6d3-2436828a1964}, !- Handle
  sys_3|mixed|shr>none|sc>dx|sh>c-e|ssf>cv|zh>b-hw|zc>none|srf>none| Occ Sch Summer Design Day, !- Name
  {4b1a36e6-fc19-46bb-9c96-5234782eee7f}, !- Schedule Type Limits Name
  ,                                       !- Interpolate to Timestep
  24,                                     !- Hour 1
  0,                                      !- Minute 1
  1;                                      !- Value Until Time 1

OS:Schedule:Rule,
  {dd08029a-210c-499d-94fb-f85256c5e8e5}, !- Handle
  Schedule Rule 20,                       !- Name
  {3316fe6f-94ed-40c4-86f1-50ca2f7f988f}, !- Schedule Ruleset Name
  1,                                      !- Rule Order
  {4a6f4fec-2928-4058-b972-faae2d05d30f}, !- Day Schedule Name
  ,                                       !- Apply Sunday
  ,                                       !- Apply Monday
  ,                                       !- Apply Tuesday
  ,                                       !- Apply Wednesday
  ,                                       !- Apply Thursday
  ,                                       !- Apply Friday
  Yes,                                    !- Apply Saturday
  DateRange,                              !- Date Specification Type
  1,                                      !- Start Month
  7,                                      !- Start Day
  12,                                     !- End Month
  30;                                     !- End Day

OS:Schedule:Day,
  {4a6f4fec-2928-4058-b972-faae2d05d30f}, !- Handle
  Schedule Day 5,                         !- Name
  {4b1a36e6-fc19-46bb-9c96-5234782eee7f}, !- Schedule Type Limits Name
  ,                                       !- Interpolate to Timestep
  2,                                      !- Hour 1
  0,                                      !- Minute 1
  1,                                      !- Value Until Time 1
  10,                                     !- Hour 2
  0,                                      !- Minute 2
  0,                                      !- Value Until Time 2
  24,                                     !- Hour 3
  0,                                      !- Minute 3
  1;                                      !- Value Until Time 3

OS:Schedule:Rule,
  {2428edf6-fb35-489e-a462-908e941d8134}, !- Handle
  Schedule Rule 21,                       !- Name
  {3316fe6f-94ed-40c4-86f1-50ca2f7f988f}, !- Schedule Ruleset Name
  0,                                      !- Rule Order
  {f26c7450-990a-4a19-831c-0f5a5bacfe4f}, !- Day Schedule Name
  Yes,                                    !- Apply Sunday
  ,                                       !- Apply Monday
  ,                                       !- Apply Tuesday
  ,                                       !- Apply Wednesday
  ,                                       !- Apply Thursday
  ,                                       !- Apply Friday
  ,                                       !- Apply Saturday
  DateRange,                              !- Date Specification Type
  1,                                      !- Start Month
  1,                                      !- Start Day
  12,                                     !- End Month
  31;                                     !- End Day

OS:Schedule:Day,
  {f26c7450-990a-4a19-831c-0f5a5bacfe4f}, !- Handle
  Schedule Day 6,                         !- Name
  {4b1a36e6-fc19-46bb-9c96-5234782eee7f}, !- Schedule Type Limits Name
  ,                                       !- Interpolate to Timestep
  1,                                      !- Hour 1
  0,                                      !- Minute 1
  0,                                      !- Value Until Time 1
  2,                                      !- Hour 2
  0,                                      !- Minute 2
  1,                                      !- Value Until Time 2
  11,                                     !- Hour 3
  0,                                      !- Minute 3
  0,                                      !- Value Until Time 3
  23,                                     !- Hour 4
  0,                                      !- Minute 4
  1,                                      !- Value Until Time 4
  24,                                     !- Hour 5
  0,                                      !- Minute 5
  0;                                      !- Value Until Time 5

OS:AvailabilityManager:NightCycle,
  {bbbf03ff-d324-487a-a018-e66455ecac5d}, !- Handle
  Availability Manager Night Cycle 2,     !- Name
  {e4230659-a18f-4b6c-b738-47d94e0341ed}, !- Applicability Schedule
  ,                                       !- Fan Schedule
  CycleOnAny,                             !- Control Type
  1,                                      !- Thermostat Tolerance {deltaC}
  ,                                       !- Cycling Run Time Control Type
  3600,                                   !- Cycling Run Time {s}
  {16ab5bec-78d5-405d-b0bb-8f37633b43d4}, !- Control Zone or Zone List Name
  {5995b38b-5c2b-4f2e-9c3a-978223fe36de}, !- Cooling Control Zone or Zone List Name
  {33aaad13-1947-40a0-912b-1d1962a73793}, !- Heating Control Zone or Zone List Name
  {e53d6709-d0cc-4f34-a88a-8a25479685ff}; !- Heating Zone Fans Only Zone or Zone List Name

OS:ModelObjectList,
  {16ab5bec-78d5-405d-b0bb-8f37633b43d4}, !- Handle
  Availability Manager Night Cycle 2 Control Zone List; !- Name

OS:ModelObjectList,
  {5995b38b-5c2b-4f2e-9c3a-978223fe36de}, !- Handle
  Availability Manager Night Cycle 2 Cooling Control Zone List; !- Name

OS:ModelObjectList,
  {33aaad13-1947-40a0-912b-1d1962a73793}, !- Handle
  Availability Manager Night Cycle 2 Heating Control Zone List; !- Name

OS:ModelObjectList,
  {e53d6709-d0cc-4f34-a88a-8a25479685ff}, !- Handle
  Availability Manager Night Cycle 2 Heating Zone Fans Only Zone List; !- Name

OS:Schedule:Ruleset,
  {b45447bf-da29-4fd9-a12b-d83a132332ab}, !- Handle
  sys_3|mixed|shr>none|sc>dx|sh>c-e|ssf>cv|zh>b-hw|zc>none|srf>none| 1 Occ Sch, !- Name
  {4b1a36e6-fc19-46bb-9c96-5234782eee7f}, !- Schedule Type Limits Name
  {47150c9f-afdf-463a-a795-40623f25714e}, !- Default Day Schedule Name
  {6e5c4733-cc2d-4107-a5e1-3471c5290685}, !- Summer Design Day Schedule Name
  {07a8629a-4db6-4c8e-8a19-88cb5708b6ba}; !- Winter Design Day Schedule Name

OS:Schedule:Day,
  {47150c9f-afdf-463a-a795-40623f25714e}, !- Handle
  sys_3|mixed|shr>none|sc>dx|sh>c-e|ssf>cv|zh>b-hw|zc>none|srf>none| 1 Occ Sch Default, !- Name
  {4b1a36e6-fc19-46bb-9c96-5234782eee7f}, !- Schedule Type Limits Name
  ,                                       !- Interpolate to Timestep
  1,                                      !- Hour 1
  0,                                      !- Minute 1
  1,                                      !- Value Until Time 1
  10,                                     !- Hour 2
  0,                                      !- Minute 2
  0,                                      !- Value Until Time 2
  24,                                     !- Hour 3
  0,                                      !- Minute 3
  1;                                      !- Value Until Time 3

OS:AdditionalProperties,
  {32f08d1d-f683-4b78-a072-ae43bd748f28}, !- Handle
  {b45447bf-da29-4fd9-a12b-d83a132332ab}, !- Object Name
  max_occ_in_spaces,                      !- Feature Name 1
  Double,                                 !- Feature Data Type 1
  6.9775368548757921,                     !- Feature Value 1
  number_of_spaces_included,              !- Feature Name 2
  Integer,                                !- Feature Data Type 2
  1,                                      !- Feature Value 2
  date_parent_object_last_edited,         !- Feature Name 3
  String,                                 !- Feature Data Type 3
  2025-10-15 17:24:35 UTC,                !- Feature Value 3
  date_parent_object_created,             !- Feature Name 4
  String,                                 !- Feature Data Type 4
  2025-10-15 17:24:35 UTC;                !- Feature Value 4

OS:Schedule:Day,
  {07a8629a-4db6-4c8e-8a19-88cb5708b6ba}, !- Handle
  sys_3|mixed|shr>none|sc>dx|sh>c-e|ssf>cv|zh>b-hw|zc>none|srf>none| 1 Occ Sch Winter Design Day, !- Name
  {4b1a36e6-fc19-46bb-9c96-5234782eee7f}, !- Schedule Type Limits Name
  ,                                       !- Interpolate to Timestep
  24,                                     !- Hour 1
  0,                                      !- Minute 1
  1;                                      !- Value Until Time 1

OS:Schedule:Day,
  {6e5c4733-cc2d-4107-a5e1-3471c5290685}, !- Handle
  sys_3|mixed|shr>none|sc>dx|sh>c-e|ssf>cv|zh>b-hw|zc>none|srf>none| 1 Occ Sch Summer Design Day, !- Name
  {4b1a36e6-fc19-46bb-9c96-5234782eee7f}, !- Schedule Type Limits Name
  ,                                       !- Interpolate to Timestep
  24,                                     !- Hour 1
  0,                                      !- Minute 1
  1;                                      !- Value Until Time 1

OS:Schedule:Rule,
  {e9638d49-b40d-41a3-81ae-e8d71fcaa9f0}, !- Handle
  Schedule Rule 22,                       !- Name
  {b45447bf-da29-4fd9-a12b-d83a132332ab}, !- Schedule Ruleset Name
  1,                                      !- Rule Order
  {0ed63c99-42d6-43d3-87ad-794a65367fd8}, !- Day Schedule Name
  ,                                       !- Apply Sunday
  ,                                       !- Apply Monday
  ,                                       !- Apply Tuesday
  ,                                       !- Apply Wednesday
  ,                                       !- Apply Thursday
  ,                                       !- Apply Friday
  Yes,                                    !- Apply Saturday
  DateRange,                              !- Date Specification Type
  1,                                      !- Start Month
  7,                                      !- Start Day
  12,                                     !- End Month
  30;                                     !- End Day

OS:Schedule:Day,
  {0ed63c99-42d6-43d3-87ad-794a65367fd8}, !- Handle
  Schedule Day 7,                         !- Name
  {4b1a36e6-fc19-46bb-9c96-5234782eee7f}, !- Schedule Type Limits Name
  ,                                       !- Interpolate to Timestep
  2,                                      !- Hour 1
  0,                                      !- Minute 1
  1,                                      !- Value Until Time 1
  10,                                     !- Hour 2
  0,                                      !- Minute 2
  0,                                      !- Value Until Time 2
  24,                                     !- Hour 3
  0,                                      !- Minute 3
  1;                                      !- Value Until Time 3

OS:Schedule:Rule,
  {cc1c84c7-a068-456f-9126-8ec213917c0f}, !- Handle
  Schedule Rule 23,                       !- Name
  {b45447bf-da29-4fd9-a12b-d83a132332ab}, !- Schedule Ruleset Name
  0,                                      !- Rule Order
  {6056f174-ec7e-428d-9650-a82420d83968}, !- Day Schedule Name
  Yes,                                    !- Apply Sunday
  ,                                       !- Apply Monday
  ,                                       !- Apply Tuesday
  ,                                       !- Apply Wednesday
  ,                                       !- Apply Thursday
  ,                                       !- Apply Friday
  ,                                       !- Apply Saturday
  DateRange,                              !- Date Specification Type
  1,                                      !- Start Month
  1,                                      !- Start Day
  12,                                     !- End Month
  31;                                     !- End Day

OS:Schedule:Day,
  {6056f174-ec7e-428d-9650-a82420d83968}, !- Handle
  Schedule Day 8,                         !- Name
  {4b1a36e6-fc19-46bb-9c96-5234782eee7f}, !- Schedule Type Limits Name
  ,                                       !- Interpolate to Timestep
  1,                                      !- Hour 1
  0,                                      !- Minute 1
  0,                                      !- Value Until Time 1
  2,                                      !- Hour 2
  0,                                      !- Minute 2
  1,                                      !- Value Until Time 2
  11,                                     !- Hour 3
  0,                                      !- Minute 3
  0,                                      !- Value Until Time 3
  23,                                     !- Hour 4
  0,                                      !- Minute 4
  1,                                      !- Value Until Time 4
  24,                                     !- Hour 5
  0,                                      !- Minute 5
  0;                                      !- Value Until Time 5

OS:Curve:Biquadratic,
  {ff48279c-d528-409d-8a7e-73c88815d796}, !- Handle
  DXCOOL-NECB2011-REF-CAPFT,              !- Name
  0.867905,                               !- Coefficient1 Constant
  0.0142459,                              !- Coefficient2 x
  0.00055436,                             !- Coefficient3 x**2
  -0.0075575,                             !- Coefficient4 y
  3.3e-05,                                !- Coefficient5 y**2
  -0.0001918,                             !- Coefficient6 x*y
  13,                                     !- Minimum Value of x
  24,                                     !- Maximum Value of x
  24,                                     !- Minimum Value of y
  46;                                     !- Maximum Value of y

OS:Curve:Quadratic,
  {f3e1c256-0c7d-464e-92db-2c04f34446c7}, !- Handle
  DXCOOL-NECB2011-REF-CAPFFLOW,           !- Name
  0.8,                                    !- Coefficient1 Constant
  0.2,                                    !- Coefficient2 x
  0,                                      !- Coefficient3 x**2
  0.5,                                    !- Minimum Value of x
  1.5;                                    !- Maximum Value of x

OS:Curve:Biquadratic,
  {ab7649fa-664e-4754-97fd-1d7dc4818d56}, !- Handle
  DXCOOL-NECB2011-REF-COOLEIRFT,          !- Name
  0.1141714,                              !- Coefficient1 Constant
  0.02818224,                             !- Coefficient2 x
  -0.0004199,                             !- Coefficient3 x**2
  0.02141082,                             !- Coefficient4 y
  0.000161028,                            !- Coefficient5 y**2
  -0.000679104,                           !- Coefficient6 x*y
  13,                                     !- Minimum Value of x
  24,                                     !- Maximum Value of x
  24,                                     !- Minimum Value of y
  46;                                     !- Maximum Value of y

OS:Curve:Quadratic,
  {a048000a-7516-471f-9360-c5cd5c220ea4}, !- Handle
  DXCOOL-NECB2011-REF-COOLEIRFFLOW,       !- Name
  1.1552,                                 !- Coefficient1 Constant
  -0.1808,                                !- Coefficient2 x
  0.0256,                                 !- Coefficient3 x**2
  0.5,                                    !- Minimum Value of x
  1.5;                                    !- Maximum Value of x

OS:Curve:Cubic,
  {010e7853-6f1d-44d7-9da6-47b3e27266dd}, !- Handle
  DXCOOL-NECB2011-REF-COOLPLFFPLR,        !- Name
  0.0277,                                 !- Coefficient1 Constant
  4.9151,                                 !- Coefficient2 x
  -8.184,                                 !- Coefficient3 x**2
  4.2702,                                 !- Coefficient4 x**3
  0.7,                                    !- Minimum Value of x
  1;                                      !- Maximum Value of x

OS:Curve:Cubic,
  {ba07f119-b96b-4259-884a-5341385a7115}, !- Handle
  BOILER-EFFFPLR-NECB2011,                !- Name
  0.3831,                                 !- Coefficient1 Constant
  2.0567,                                 !- Coefficient2 x
  -2.6469,                                !- Coefficient3 x**2
  1.2148,                                 !- Coefficient4 x**3
  0,                                      !- Minimum Value of x
  1;                                      !- Maximum Value of x

OS:Curve:Cubic,
  {3c055bd9-7ed3-4c0a-8909-7e02de3341a7}, !- Handle
  SWH-EFFFPLR-NECB2011,                   !- Name
  0.7576,                                 !- Coefficient1 Constant
  1.0071,                                 !- Coefficient2 x
  -1.4443,                                !- Coefficient3 x**2
  0.6844,                                 !- Coefficient4 x**3
  0,                                      !- Minimum Value of x
  1;                                      !- Maximum Value of x

OS:Generator:PVWatts,
  {e811c73d-d001-4272-8cc2-15bc9eefda2d}, !- Handle
  Generator PVWatts 1,                    !- Name
  ,                                       !- PVWatts Version
  88032.1359886609,                       !- DC System Capacity {W}
  Standard,                               !- Module Type
  FixedOpenRack,                          !- Array Type
  ,                                       !- System Losses
  51.11,                                  !- Tilt Angle {deg}
  180,                                    !- Azimuth Angle {deg}
  ;                                       !- Surface Name

OS:ElectricLoadCenter:Inverter:PVWatts,
  {5a731265-7b3d-4cf9-a703-7380fcd013ff}, !- Handle
  Electric Load Center Inverter PVWatts 1, !- Name
  1.1,                                    !- DC to AC Size Ratio
  0.96;                                   !- Inverter Efficiency

OS:ElectricLoadCenter:Distribution,
  {bf4bf76c-d267-469d-84cc-d73094901834}, !- Handle
  Electric Load Center Distribution 1,    !- Name
  {390f0359-205a-43c2-9178-7dcbbb8bc44e}, !- Generator List Name
  Baseload,                               !- Generator Operation Scheme Type
  ,                                       !- Demand Limit Scheme Purchased Electric Demand Limit {W}
  ,                                       !- Track Schedule Name Scheme Schedule Name
  ,                                       !- Track Meter Scheme Meter Name
  ,                                       !- Electrical Buss Type
  {5a731265-7b3d-4cf9-a703-7380fcd013ff}; !- Inverter Name

OS:ModelObjectList,
  {390f0359-205a-43c2-9178-7dcbbb8bc44e}, !- Handle
  {5054ca60-855b-45b8-9d52-1662c06ded58}, !- Name
  {e811c73d-d001-4272-8cc2-15bc9eefda2d}; !- Model Object 1

