
OS:Version,
  {df7877b1-8229-487e-b92f-c94c12e71aeb}, !- Handle
  3.9.0;                                  !- Version Identifier

OS:ScheduleTypeLimits,
  {ed0e6718-ba40-4234-8fc4-16a35c76fe4d}, !- Handle
  Always On Discrete Limits,              !- Name
  0,                                      !- Lower Limit Value
  1,                                      !- Upper Limit Value
  Discrete,                               !- Numeric Type
  Availability;                           !- Unit Type

OS:Site,
  {780cebd4-d970-49f6-8a67-996a6b51b6bf}, !- Handle
  Yellowknife AP_NT_CAN,                  !- Name
  62.46,                                  !- Latitude {deg}
  -114.44,                                !- Longitude {deg}
  -7,                                     !- Time Zone {hr}
  205.7,                                  !- Elevation {m}
  City;                                   !- Terrain

OS:SimulationControl,
  {8e6d581c-8bc1-4ad1-93a1-3671638d2d44}, !- Handle
  Yes,                                    !- Do Zone Sizing Calculation
  Yes,                                    !- Do System Sizing Calculation
  Yes,                                    !- Do Plant Sizing Calculation
  No,                                     !- Run Simulation for Sizing Periods
  Yes,                                    !- Run Simulation for Weather File Run Periods
  0.04,                                   !- Loads Convergence Tolerance Value {W}
  0.2,                                    !- Temperature Convergence Tolerance Value {deltaC}
  FullInteriorAndExterior,                !- Solar Distribution
  25,                                     !- Maximum Number of Warmup Days
  6,                                      !- Minimum Number of Warmup Days
  No,                                     !- Do HVAC Sizing Simulation for Sizing Periods
  1;                                      !- Maximum Number of HVAC Sizing Simulation Passes

OS:Surface,
  {f92df46b-44ed-4bc4-a65b-b4687c727c14}, !- Handle
  Kitchen_Ceiling,                        !- Name
  RoofCeiling,                            !- Surface Type
  ,                                       !- Construction Name
  {77d3cfbe-7d30-4aaf-86db-75976a798830}, !- Space Name
  Surface,                                !- Outside Boundary Condition
  {99a3fb5b-eea2-4c47-b391-cc45f8583bd0}, !- Outside Boundary Condition Object
  NoSun,                                  !- Sun Exposure
  NoWind,                                 !- Wind Exposure
  ,                                       !- View Factor to Ground
  ,                                       !- Number of Vertices
  22.6087, 16.4427, 3.0488,               !- X,Y,Z Vertex 1 {m}
  22.6087, 22.6087, 3.0488,               !- X,Y,Z Vertex 2 {m}
  0, 22.6087, 3.0488,                     !- X,Y,Z Vertex 3 {m}
  0, 16.4427, 3.0488;                     !- X,Y,Z Vertex 4 {m}

OS:Space,
  {77d3cfbe-7d30-4aaf-86db-75976a798830}, !- Handle
  Kitchen,                                !- Name
  {f72f339a-7251-400d-abf7-c267ec6d3b23}, !- Space Type Name
  ,                                       !- Default Construction Set Name
  ,                                       !- Default Schedule Set Name
  0,                                      !- Direction of Relative North {deg}
  0,                                      !- X Origin {m}
  0,                                      !- Y Origin {m}
  0,                                      !- Z Origin {m}
  {28f49d8d-3737-4296-b4ec-3bf67b00f788}, !- Building Story Name
  {427bf6ff-d995-4792-97f8-39beab342bdc}, !- Thermal Zone Name
  Yes,                                    !- Part of Total Floor Area
  ,                                       !- Design Specification Outdoor Air Object Name
  ,                                       !- Building Unit Name
  Autocalculate;                          !- Volume {m3}

OS:Output:Meter,
  {2c504f0f-1677-4791-a625-c9fdceff2175}, !- Handle
  ElectricityNet:Facility,                !- Name
  Hourly,                                 !- Reporting Frequency
  True,                                   !- Meter File Only
  False;                                  !- Cumulative

OS:Surface,
  {a98a3d24-77be-4dd8-9ea4-dce8b4b21baf}, !- Handle
  Dining_Wall_South,                      !- Name
  Wall,                                   !- Surface Type
  ,                                       !- Construction Name
  {d48cb50c-3a07-4ed6-baac-fe451a3f5495}, !- Space Name
  Outdoors,                               !- Outside Boundary Condition
  ,                                       !- Outside Boundary Condition Object
  SunExposed,                             !- Sun Exposure
  WindExposed,                            !- Wind Exposure
  ,                                       !- View Factor to Ground
  ,                                       !- Number of Vertices
  0, 0, 3.0488,                           !- X,Y,Z Vertex 1 {m}
  0, 0, 0,                                !- X,Y,Z Vertex 2 {m}
  22.6087, 0, 0,                          !- X,Y,Z Vertex 3 {m}
  22.6087, 0, 3.0488;                     !- X,Y,Z Vertex 4 {m}

OS:Space,
  {d48cb50c-3a07-4ed6-baac-fe451a3f5495}, !- Handle
  Dining,                                 !- Name
  {74d79ecf-87d4-4cbb-ba37-86cfde5c20bb}, !- Space Type Name
  ,                                       !- Default Construction Set Name
  ,                                       !- Default Schedule Set Name
  0,                                      !- Direction of Relative North {deg}
  0,                                      !- X Origin {m}
  0,                                      !- Y Origin {m}
  0,                                      !- Z Origin {m}
  {28f49d8d-3737-4296-b4ec-3bf67b00f788}, !- Building Story Name
  {de2591e1-16b0-476e-afd5-90075879c54a}, !- Thermal Zone Name
  Yes,                                    !- Part of Total Floor Area
  ,                                       !- Design Specification Outdoor Air Object Name
  ,                                       !- Building Unit Name
  Autocalculate;                          !- Volume {m3}

OS:Surface,
  {2d02da2f-1bea-4fb4-b48e-f0da184c6074}, !- Handle
  north-roof,                             !- Name
  RoofCeiling,                            !- Surface Type
  ,                                       !- Construction Name
  {a6d9b45b-2723-43c6-8355-1e3d52bed681}, !- Space Name
  Outdoors,                               !- Outside Boundary Condition
  ,                                       !- Outside Boundary Condition Object
  SunExposed,                             !- Sun Exposure
  WindExposed,                            !- Wind Exposure
  ,                                       !- View Factor to Ground
  ,                                       !- Number of Vertices
  11.3044, 18.8397, 3.7692,               !- X,Y,Z Vertex 1 {m}
  22.6087, 22.6087, 0,                    !- X,Y,Z Vertex 2 {m}
  0, 22.6087, 0;                          !- X,Y,Z Vertex 3 {m}

OS:Space,
  {a6d9b45b-2723-43c6-8355-1e3d52bed681}, !- Handle
  attic,                                  !- Name
  {73bc1497-600d-436a-a675-cd1456fcf9ac}, !- Space Type Name
  ,                                       !- Default Construction Set Name
  ,                                       !- Default Schedule Set Name
  0,                                      !- Direction of Relative North {deg}
  0,                                      !- X Origin {m}
  0,                                      !- Y Origin {m}
  3.0488,                                 !- Z Origin {m}
  {f0fd8038-c2dd-4caa-93ad-11e3bdfa35ec}, !- Building Story Name
  {9ebe85eb-682b-492c-b0d7-c890cb2a2fef}, !- Thermal Zone Name
  No,                                     !- Part of Total Floor Area
  ,                                       !- Design Specification Outdoor Air Object Name
  ,                                       !- Building Unit Name
  Autocalculate;                          !- Volume {m3}

OS:Surface,
  {628c7363-89f7-4a36-b959-b9f52e0cab7c}, !- Handle
  Kitchen_Wall_North,                     !- Name
  Wall,                                   !- Surface Type
  ,                                       !- Construction Name
  {77d3cfbe-7d30-4aaf-86db-75976a798830}, !- Space Name
  Outdoors,                               !- Outside Boundary Condition
  ,                                       !- Outside Boundary Condition Object
  SunExposed,                             !- Sun Exposure
  WindExposed,                            !- Wind Exposure
  ,                                       !- View Factor to Ground
  ,                                       !- Number of Vertices
  22.6087, 22.6087, 3.0488,               !- X,Y,Z Vertex 1 {m}
  22.6087, 22.6087, 0,                    !- X,Y,Z Vertex 2 {m}
  0, 22.6087, 0,                          !- X,Y,Z Vertex 3 {m}
  0, 22.6087, 3.0488;                     !- X,Y,Z Vertex 4 {m}

OS:Surface,
  {c8a19cd4-2eef-4dab-9ff8-b3cd1bd596db}, !- Handle
  south-roof,                             !- Name
  RoofCeiling,                            !- Surface Type
  ,                                       !- Construction Name
  {a6d9b45b-2723-43c6-8355-1e3d52bed681}, !- Space Name
  Outdoors,                               !- Outside Boundary Condition
  ,                                       !- Outside Boundary Condition Object
  SunExposed,                             !- Sun Exposure
  WindExposed,                            !- Wind Exposure
  ,                                       !- View Factor to Ground
  ,                                       !- Number of Vertices
  11.3044, 3.769, 3.7692,                 !- X,Y,Z Vertex 1 {m}
  -1.73917179908584e-034, -6.74580236774689e-017, 6.7454444242911e-017, !- X,Y,Z Vertex 2 {m}
  22.6087, -9.66039263974126e-017, 9.65988004329428e-017; !- X,Y,Z Vertex 3 {m}

OS:Surface,
  {80882478-4818-4b6c-a701-0a4f97af99ea}, !- Handle
  Dining_Wall_East,                       !- Name
  Wall,                                   !- Surface Type
  ,                                       !- Construction Name
  {d48cb50c-3a07-4ed6-baac-fe451a3f5495}, !- Space Name
  Outdoors,                               !- Outside Boundary Condition
  ,                                       !- Outside Boundary Condition Object
  SunExposed,                             !- Sun Exposure
  WindExposed,                            !- Wind Exposure
  ,                                       !- View Factor to Ground
  ,                                       !- Number of Vertices
  22.6087, 0, 3.0488,                     !- X,Y,Z Vertex 1 {m}
  22.6087, 0, 0,                          !- X,Y,Z Vertex 2 {m}
  22.6087, 16.4427, 0,                    !- X,Y,Z Vertex 3 {m}
  22.6087, 16.4427, 3.0488;               !- X,Y,Z Vertex 4 {m}

OS:Timestep,
  {79cc9340-93d4-4f72-a5ca-b64451a57564}, !- Handle
  6;                                      !- Number of Timesteps per Hour

OS:Surface,
  {8f0d9014-6f65-4cc2-a0bf-390dce688306}, !- Handle
  Dining_Wall_West,                       !- Name
  Wall,                                   !- Surface Type
  ,                                       !- Construction Name
  {d48cb50c-3a07-4ed6-baac-fe451a3f5495}, !- Space Name
  Outdoors,                               !- Outside Boundary Condition
  ,                                       !- Outside Boundary Condition Object
  SunExposed,                             !- Sun Exposure
  WindExposed,                            !- Wind Exposure
  ,                                       !- View Factor to Ground
  ,                                       !- Number of Vertices
  0, 16.4427, 3.0488,                     !- X,Y,Z Vertex 1 {m}
  0, 16.4427, 0,                          !- X,Y,Z Vertex 2 {m}
  0, 0, 0,                                !- X,Y,Z Vertex 3 {m}
  0, 0, 3.0488;                           !- X,Y,Z Vertex 4 {m}

OS:Surface,
  {cb50c49a-cbad-4855-96c4-0782e1d597c9}, !- Handle
  Dining_Floor,                           !- Name
  Floor,                                  !- Surface Type
  {a67ab087-2dc3-4343-b8f2-09605d3a36dc}, !- Construction Name
  {d48cb50c-3a07-4ed6-baac-fe451a3f5495}, !- Space Name
  Foundation,                             !- Outside Boundary Condition
  {4e1f87ad-689d-47a1-9203-9c5a34c8f9c6}, !- Outside Boundary Condition Object
  NoSun,                                  !- Sun Exposure
  NoWind,                                 !- Wind Exposure
  ,                                       !- View Factor to Ground
  ,                                       !- Number of Vertices
  22.6087, 16.4427, 0,                    !- X,Y,Z Vertex 1 {m}
  22.6087, 0, 0,                          !- X,Y,Z Vertex 2 {m}
  0, 0, 0,                                !- X,Y,Z Vertex 3 {m}
  0, 16.4427, 0;                          !- X,Y,Z Vertex 4 {m}

OS:Surface,
  {ff63dcc8-88a6-4e75-a736-a16ea7374519}, !- Handle
  Dining_Ceiling,                         !- Name
  RoofCeiling,                            !- Surface Type
  ,                                       !- Construction Name
  {d48cb50c-3a07-4ed6-baac-fe451a3f5495}, !- Space Name
  Surface,                                !- Outside Boundary Condition
  {60fffe8d-e21f-43c1-9f06-30986f76ee3e}, !- Outside Boundary Condition Object
  NoSun,                                  !- Sun Exposure
  NoWind,                                 !- Wind Exposure
  ,                                       !- View Factor to Ground
  ,                                       !- Number of Vertices
  22.6087, 0, 3.0488,                     !- X,Y,Z Vertex 1 {m}
  22.6087, 16.4427, 3.0488,               !- X,Y,Z Vertex 2 {m}
  0, 16.4427, 3.0488,                     !- X,Y,Z Vertex 3 {m}
  0, 0, 3.0488;                           !- X,Y,Z Vertex 4 {m}

OS:Surface,
  {15bdfbf5-28b3-4f6b-939c-af2a310fc326}, !- Handle
  west-roof,                              !- Name
  RoofCeiling,                            !- Surface Type
  ,                                       !- Construction Name
  {a6d9b45b-2723-43c6-8355-1e3d52bed681}, !- Space Name
  Outdoors,                               !- Outside Boundary Condition
  ,                                       !- Outside Boundary Condition Object
  SunExposed,                             !- Sun Exposure
  WindExposed,                            !- Wind Exposure
  ,                                       !- View Factor to Ground
  ,                                       !- Number of Vertices
  11.3044, 18.8397, 3.7692,               !- X,Y,Z Vertex 1 {m}
  -1.57308521999447e-016, 22.6087, 4.71792013183315e-016, !- X,Y,Z Vertex 2 {m}
  -1.1417329679585e-016, -2.17720723655857e-033, 3.42422958797359e-016, !- X,Y,Z Vertex 3 {m}
  11.3044, 3.769, 3.7692;                 !- X,Y,Z Vertex 4 {m}

OS:Surface,
  {b8b44463-bcda-4673-8d04-2c845d134292}, !- Handle
  Kitchen_Wall_West,                      !- Name
  Wall,                                   !- Surface Type
  ,                                       !- Construction Name
  {77d3cfbe-7d30-4aaf-86db-75976a798830}, !- Space Name
  Outdoors,                               !- Outside Boundary Condition
  ,                                       !- Outside Boundary Condition Object
  SunExposed,                             !- Sun Exposure
  WindExposed,                            !- Wind Exposure
  ,                                       !- View Factor to Ground
  ,                                       !- Number of Vertices
  0, 22.6087, 3.0488,                     !- X,Y,Z Vertex 1 {m}
  0, 22.6087, 0,                          !- X,Y,Z Vertex 2 {m}
  0, 16.4427, 0,                          !- X,Y,Z Vertex 3 {m}
  0, 16.4427, 3.0488;                     !- X,Y,Z Vertex 4 {m}

OS:Surface,
  {18d25d92-d723-4017-980c-f20184bc1dd2}, !- Handle
  Dining_Wall_North-PPAutoCreateOther,    !- Name
  Wall,                                   !- Surface Type
  ,                                       !- Construction Name
  {77d3cfbe-7d30-4aaf-86db-75976a798830}, !- Space Name
  Surface,                                !- Outside Boundary Condition
  {1bf4d799-b7fc-481e-b40e-29c78d189519}, !- Outside Boundary Condition Object
  NoSun,                                  !- Sun Exposure
  NoWind,                                 !- Wind Exposure
  ,                                       !- View Factor to Ground
  ,                                       !- Number of Vertices
  0, 16.4427, 3.0488,                     !- X,Y,Z Vertex 1 {m}
  0, 16.4427, 0,                          !- X,Y,Z Vertex 2 {m}
  22.6087, 16.4427, 0,                    !- X,Y,Z Vertex 3 {m}
  22.6087, 16.4427, 3.0488;               !- X,Y,Z Vertex 4 {m}

OS:ShadowCalculation,
  {137b265b-7d90-4b85-83d6-6f49d95bdf56}, !- Handle
  PolygonClipping,                        !- Shading Calculation Method
  ,                                       !- Shading Calculation Update Frequency Method
  7,                                      !- Shading Calculation Update Frequency
  15000,                                  !- Maximum Figures in Shadow Overlap Calculations
  ,                                       !- Polygon Clipping Algorithm
  512,                                    !- Pixel Counting Resolution
  ,                                       !- Sky Diffuse Modeling Algorithm
  No,                                     !- Output External Shading Calculation Results
  No,                                     !- Disable Self-Shading Within Shading Zone Groups
  No;                                     !- Disable Self-Shading From Shading Zone Groups to Other Zones

OS:Surface,
  {60fffe8d-e21f-43c1-9f06-30986f76ee3e}, !- Handle
  attic-floor-dinning,                    !- Name
  Floor,                                  !- Surface Type
  ,                                       !- Construction Name
  {a6d9b45b-2723-43c6-8355-1e3d52bed681}, !- Space Name
  Surface,                                !- Outside Boundary Condition
  {ff63dcc8-88a6-4e75-a736-a16ea7374519}, !- Outside Boundary Condition Object
  NoSun,                                  !- Sun Exposure
  NoWind,                                 !- Wind Exposure
  ,                                       !- View Factor to Ground
  ,                                       !- Number of Vertices
  22.6087, 16.4427, 0,                    !- X,Y,Z Vertex 1 {m}
  22.6087, 0, 0,                          !- X,Y,Z Vertex 2 {m}
  0, 0, 0,                                !- X,Y,Z Vertex 3 {m}
  0, 16.4427, 0;                          !- X,Y,Z Vertex 4 {m}

OS:Surface,
  {99a3fb5b-eea2-4c47-b391-cc45f8583bd0}, !- Handle
  attic-floor-kitchen,                    !- Name
  Floor,                                  !- Surface Type
  ,                                       !- Construction Name
  {a6d9b45b-2723-43c6-8355-1e3d52bed681}, !- Space Name
  Surface,                                !- Outside Boundary Condition
  {f92df46b-44ed-4bc4-a65b-b4687c727c14}, !- Outside Boundary Condition Object
  NoSun,                                  !- Sun Exposure
  NoWind,                                 !- Wind Exposure
  ,                                       !- View Factor to Ground
  ,                                       !- Number of Vertices
  22.6087, 22.6087, 0,                    !- X,Y,Z Vertex 1 {m}
  22.6087, 16.4427, 0,                    !- X,Y,Z Vertex 2 {m}
  0, 16.4427, 0,                          !- X,Y,Z Vertex 3 {m}
  0, 22.6087, 0;                          !- X,Y,Z Vertex 4 {m}

OS:Surface,
  {f5f1a811-415b-4d09-b2da-ccbe1f40d3a2}, !- Handle
  Kitchen_Floor,                          !- Name
  Floor,                                  !- Surface Type
  {a67ab087-2dc3-4343-b8f2-09605d3a36dc}, !- Construction Name
  {77d3cfbe-7d30-4aaf-86db-75976a798830}, !- Space Name
  Foundation,                             !- Outside Boundary Condition
  {4e1f87ad-689d-47a1-9203-9c5a34c8f9c6}, !- Outside Boundary Condition Object
  NoSun,                                  !- Sun Exposure
  NoWind,                                 !- Wind Exposure
  ,                                       !- View Factor to Ground
  ,                                       !- Number of Vertices
  22.6087, 22.6087, 0,                    !- X,Y,Z Vertex 1 {m}
  22.6087, 16.4427, 0,                    !- X,Y,Z Vertex 2 {m}
  0, 16.4427, 0,                          !- X,Y,Z Vertex 3 {m}
  0, 22.6087, 0;                          !- X,Y,Z Vertex 4 {m}

OS:RunPeriod,
  {3c4ccfb1-e715-4662-9c52-be1b0a138576}, !- Handle
  Run Period 1,                           !- Name
  1,                                      !- Begin Month
  1,                                      !- Begin Day of Month
  12,                                     !- End Month
  31,                                     !- End Day of Month
  No,                                     !- Use Weather File Holidays and Special Days
  No,                                     !- Use Weather File Daylight Saving Period
  No,                                     !- Apply Weekend Holiday Rule
  Yes,                                    !- Use Weather File Rain Indicators
  Yes,                                    !- Use Weather File Snow Indicators
  1;                                      !- Number of Times Runperiod to be Repeated

OS:YearDescription,
  {7190988a-56b7-49e4-be5c-e6199b78fff0}, !- Handle
  ,                                       !- Calendar Year
  Sunday;                                 !- Day of Week for Start Day

OS:HeatBalanceAlgorithm,
  {64382367-5719-4453-8c29-e1a70cef6d9c}, !- Handle
  ConductionTransferFunction,             !- Algorithm
  200;                                    !- Surface Temperature Upper Limit {C}

OS:Surface,
  {1bf4d799-b7fc-481e-b40e-29c78d189519}, !- Handle
  Dining_Wall_North,                      !- Name
  Wall,                                   !- Surface Type
  ,                                       !- Construction Name
  {d48cb50c-3a07-4ed6-baac-fe451a3f5495}, !- Space Name
  Surface,                                !- Outside Boundary Condition
  {18d25d92-d723-4017-980c-f20184bc1dd2}, !- Outside Boundary Condition Object
  NoSun,                                  !- Sun Exposure
  NoWind,                                 !- Wind Exposure
  ,                                       !- View Factor to Ground
  ,                                       !- Number of Vertices
  22.6087, 16.4427, 3.0488,               !- X,Y,Z Vertex 1 {m}
  22.6087, 16.4427, 0,                    !- X,Y,Z Vertex 2 {m}
  0, 16.4427, 0,                          !- X,Y,Z Vertex 3 {m}
  0, 16.4427, 3.0488;                     !- X,Y,Z Vertex 4 {m}

OS:Output:Meter,
  {691ea4a2-e815-4852-aa14-ac1ce9bfcf5c}, !- Handle
  NaturalGas:Facility,                    !- Name
  Hourly,                                 !- Reporting Frequency
  True,                                   !- Meter File Only
  False;                                  !- Cumulative

OS:ConvergenceLimits,
  {a71a34c7-4772-4b25-9024-f2d758143793}, !- Handle
  1,                                      !- Minimum System Timestep {minutes}
  20;                                     !- Maximum HVAC Iterations

OS:Output:Meter,
  {ceae7f14-5ab7-4a91-9729-89b3f9655715}, !- Handle
  Electricity:Facility,                   !- Name
  Hourly,                                 !- Reporting Frequency
  True,                                   !- Meter File Only
  False;                                  !- Cumulative

OS:Surface,
  {c948d197-ce91-4318-a26c-8d47d0d034ce}, !- Handle
  Kitchen_Wall_East,                      !- Name
  Wall,                                   !- Surface Type
  ,                                       !- Construction Name
  {77d3cfbe-7d30-4aaf-86db-75976a798830}, !- Space Name
  Outdoors,                               !- Outside Boundary Condition
  ,                                       !- Outside Boundary Condition Object
  SunExposed,                             !- Sun Exposure
  WindExposed,                            !- Wind Exposure
  ,                                       !- View Factor to Ground
  ,                                       !- Number of Vertices
  22.6087, 16.4427, 3.0488,               !- X,Y,Z Vertex 1 {m}
  22.6087, 16.4427, 0,                    !- X,Y,Z Vertex 2 {m}
  22.6087, 22.6087, 0,                    !- X,Y,Z Vertex 3 {m}
  22.6087, 22.6087, 3.0488;               !- X,Y,Z Vertex 4 {m}

OS:Building,
  {57a0612b-80fa-4a4f-8704-b192e6d39f92}, !- Handle
  FullServiceRestaurant,                  !- Name
  ,                                       !- Building Sector Type
  0,                                      !- North Axis {deg}
  ,                                       !- Nominal Floor to Floor Height {m}
  ,                                       !- Space Type Name
  {b33cc4b3-83c3-4b0a-b190-ad51d15f9960}, !- Default Construction Set Name
  ,                                       !- Default Schedule Set Name
  1,                                      !- Standards Number of Stories
  1,                                      !- Standards Number of Above Ground Stories
  NECB2017,                               !- Standards Template
  FullServiceRestaurant;                  !- Standards Building Type

OS:Surface,
  {2634f8db-e6bf-4750-b638-5aac0aaf0b7c}, !- Handle
  east-roof,                              !- Name
  RoofCeiling,                            !- Surface Type
  ,                                       !- Construction Name
  {a6d9b45b-2723-43c6-8355-1e3d52bed681}, !- Space Name
  Outdoors,                               !- Outside Boundary Condition
  ,                                       !- Outside Boundary Condition Object
  SunExposed,                             !- Sun Exposure
  WindExposed,                            !- Wind Exposure
  ,                                       !- View Factor to Ground
  ,                                       !- Number of Vertices
  11.3044, 3.769, 3.7692,                 !- X,Y,Z Vertex 1 {m}
  22.6087, 0, 0,                          !- X,Y,Z Vertex 2 {m}
  22.6087, 22.6087, 0,                    !- X,Y,Z Vertex 3 {m}
  11.3044, 18.8397, 3.7692;               !- X,Y,Z Vertex 4 {m}

OS:Facility,
  {8630d1c8-2694-4622-ac46-ec75f253c7ea}; !- Handle

OS:BuildingStory,
  {28f49d8d-3737-4296-b4ec-3bf67b00f788}, !- Handle
  Building Story 1,                       !- Name
  0,                                      !- Nominal Z Coordinate {m}
  ,                                       !- Nominal Floor to Floor Height {m}
  ,                                       !- Default Construction Set Name
  ,                                       !- Default Schedule Set Name
  ;                                       !- Group Rendering Name

OS:BuildingStory,
  {f0fd8038-c2dd-4caa-93ad-11e3bdfa35ec}, !- Handle
  Building Story 2,                       !- Name
  3.0488,                                 !- Nominal Z Coordinate {m}
  ,                                       !- Nominal Floor to Floor Height {m}
  ,                                       !- Default Construction Set Name
  ,                                       !- Default Schedule Set Name
  ;                                       !- Group Rendering Name

OS:WeatherFile,
  {591e076f-b1ff-4f98-9dd0-4f1873bc12ec}, !- Handle
  Yellowknife AP,                         !- City
  NT,                                     !- State Province Region
  CAN,                                    !- Country
  CWEC2020,                               !- Data Source
  719360,                                 !- WMO Number
  62.46,                                  !- Latitude {deg}
  -114.44,                                !- Longitude {deg}
  -7,                                     !- Time Zone {hr}
  205.7,                                  !- Elevation {m}
  /home/osdev/openstudio-standards/data/weather/CAN_NT_Yellowknife.AP.719360_CWEC2020.epw, !- Url
  9F35EA84,                               !- Checksum
  ,                                       !- Start Date Actual Year
  Sunday;                                 !- Start Day of Week

OS:Site:WaterMainsTemperature,
  {d4488da0-43af-4769-8758-7b0d3a753888}, !- Handle
  Correlation,                            !- Calculation Method
  ,                                       !- Temperature Schedule Name
  -3.65833333333333,                      !- Annual Average Outdoor Air Temperature {C}
  41.5;                                   !- Maximum Difference In Monthly Average Outdoor Air Temperatures {deltaC}

OS:Site:GroundTemperature:BuildingSurface,
  {e1936907-687d-474b-be93-754a3a0b3ae4}, !- Handle
  19.527,                                 !- January Ground Temperature {C}
  19.502,                                 !- February Ground Temperature {C}
  19.536,                                 !- March Ground Temperature {C}
  19.598,                                 !- April Ground Temperature {C}
  20.002,                                 !- May Ground Temperature {C}
  21.64,                                  !- June Ground Temperature {C}
  22.225,                                 !- July Ground Temperature {C}
  22.375,                                 !- August Ground Temperature {C}
  21.449,                                 !- September Ground Temperature {C}
  20.121,                                 !- October Ground Temperature {C}
  19.802,                                 !- November Ground Temperature {C}
  19.633;                                 !- December Ground Temperature {C}

OS:SpaceType,
  {73bc1497-600d-436a-a675-cd1456fcf9ac}, !- Handle
  Space Function - undefined -,           !- Name
  ,                                       !- Default Construction Set Name
  {4b2f4300-0f70-48e9-810d-b50b51b752e5}, !- Default Schedule Set Name
  {53dd3e90-e3ab-49fc-bbbc-91a5a84d8e79}, !- Group Rendering Name
  {0a944589-6dcc-4de5-848a-1f7df48d373f}, !- Design Specification Outdoor Air Object Name
  ,                                       !- Standards Template
  Space Function,                         !- Standards Building Type
  - undefined -;                          !- Standards Space Type

OS:Rendering:Color,
  {2d245aba-2197-4e89-8d94-0ab8b7d48165}, !- Handle
  Space Function - undefined -,           !- Name
  255,                                    !- Rendering Red Value
  255,                                    !- Rendering Green Value
  255;                                    !- Rendering Blue Value

OS:SpaceType,
  {74d79ecf-87d4-4cbb-ba37-86cfde5c20bb}, !- Handle
  Space Function Dining area - family dining, !- Name
  ,                                       !- Default Construction Set Name
  {658ca590-fa40-4540-92e7-c4c459403214}, !- Default Schedule Set Name
  {80f7e717-df23-4c6e-a392-c3bc85060971}, !- Group Rendering Name
  {d8ebd889-722c-4ca5-9e1f-6edcaeb9df1f}, !- Design Specification Outdoor Air Object Name
  ,                                       !- Standards Template
  Space Function,                         !- Standards Building Type
  Dining area - family dining;            !- Standards Space Type

OS:Rendering:Color,
  {7a9e8539-9cb5-4ca2-908b-238e9d319c5c}, !- Handle
  Space Function Dining - family space,   !- Name
  255,                                    !- Rendering Red Value
  255,                                    !- Rendering Green Value
  255;                                    !- Rendering Blue Value

OS:SpaceType,
  {f72f339a-7251-400d-abf7-c267ec6d3b23}, !- Handle
  Space Function Food preparation area,   !- Name
  ,                                       !- Default Construction Set Name
  {06c72ccf-8308-4f09-b43d-c573b9cd7c3f}, !- Default Schedule Set Name
  {20e139b1-b64a-4439-947e-44560189fed2}, !- Group Rendering Name
  {d7fd227b-68ef-4ba8-87ef-3ed2c45eec68}, !- Design Specification Outdoor Air Object Name
  ,                                       !- Standards Template
  Space Function,                         !- Standards Building Type
  Food preparation area;                  !- Standards Space Type

OS:Rendering:Color,
  {03141d71-f229-4289-b14b-a6ad922f5827}, !- Handle
  Space Function Food preparation,        !- Name
  255,                                    !- Rendering Red Value
  255,                                    !- Rendering Green Value
  255;                                    !- Rendering Blue Value

OS:SizingPeriod:DesignDay,
  {f1f7338e-f339-4d51-908e-0aecab6682ae}, !- Handle
  Yellowknife AP Ann Clg .4% Condns DB=>MWB, !- Name
  25.6,                                   !- Maximum Dry-Bulb Temperature {C}
  8,                                      !- Daily Dry-Bulb Temperature Range {deltaC}
  98878,                                  !- Barometric Pressure {Pa}
  4.1,                                    !- Wind Speed {m/s}
  160,                                    !- Wind Direction {deg}
  ,                                       !- Sky Clearness
  No,                                     !- Rain Indicator
  No,                                     !- Snow Indicator
  21,                                     !- Day of Month
  7,                                      !- Month
  SummerDesignDay,                        !- Day Type
  No,                                     !- Daylight Saving Time Indicator
  Wetbulb,                                !- Humidity Condition Type
  ,                                       !- Humidity Condition Day Schedule Name
  16.1,                                   !- Wetbulb or DewPoint at Maximum Dry-Bulb {C}
  ,                                       !- Humidity Ratio at Maximum Dry-Bulb {kgWater/kgDryAir}
  ,                                       !- Enthalpy at Maximum Dry-Bulb {J/kg}
  DefaultMultipliers,                     !- Dry-Bulb Temperature Range Modifier Type
  ,                                       !- Dry-Bulb Temperature Range Modifier Day Schedule Name
  ASHRAETau,                              !- Solar Model Indicator
  ,                                       !- Beam Solar Day Schedule Name
  ,                                       !- Diffuse Solar Day Schedule Name
  0.369,                                  !- ASHRAE Clear Sky Optical Depth for Beam Irradiance {dimensionless}
  2.418;                                  !- ASHRAE Clear Sky Optical Depth for Diffuse Irradiance {dimensionless}

OS:SizingPeriod:DesignDay,
  {a0895130-9e16-4bf1-9e91-63dce1fa3335}, !- Handle
  Yellowknife AP Ann Clg .4% Condns WB=>MDB, !- Name
  22.9,                                   !- Maximum Dry-Bulb Temperature {C}
  8,                                      !- Daily Dry-Bulb Temperature Range {deltaC}
  98878,                                  !- Barometric Pressure {Pa}
  4.1,                                    !- Wind Speed {m/s}
  160,                                    !- Wind Direction {deg}
  ,                                       !- Sky Clearness
  No,                                     !- Rain Indicator
  No,                                     !- Snow Indicator
  21,                                     !- Day of Month
  7,                                      !- Month
  SummerDesignDay,                        !- Day Type
  No,                                     !- Daylight Saving Time Indicator
  Wetbulb,                                !- Humidity Condition Type
  ,                                       !- Humidity Condition Day Schedule Name
  17.2,                                   !- Wetbulb or DewPoint at Maximum Dry-Bulb {C}
  ,                                       !- Humidity Ratio at Maximum Dry-Bulb {kgWater/kgDryAir}
  ,                                       !- Enthalpy at Maximum Dry-Bulb {J/kg}
  DefaultMultipliers,                     !- Dry-Bulb Temperature Range Modifier Type
  ,                                       !- Dry-Bulb Temperature Range Modifier Day Schedule Name
  ASHRAETau,                              !- Solar Model Indicator
  ,                                       !- Beam Solar Day Schedule Name
  ,                                       !- Diffuse Solar Day Schedule Name
  0.369,                                  !- ASHRAE Clear Sky Optical Depth for Beam Irradiance {dimensionless}
  2.418;                                  !- ASHRAE Clear Sky Optical Depth for Diffuse Irradiance {dimensionless}

OS:SizingPeriod:DesignDay,
  {5af41ef1-3a9d-4a6d-b92c-b086938e338e}, !- Handle
  Yellowknife AP Ann Htg 99.6% Condns DB, !- Name
  -40,                                    !- Maximum Dry-Bulb Temperature {C}
  0,                                      !- Daily Dry-Bulb Temperature Range {deltaC}
  98878,                                  !- Barometric Pressure {Pa}
  1.8,                                    !- Wind Speed {m/s}
  310,                                    !- Wind Direction {deg}
  0,                                      !- Sky Clearness
  No,                                     !- Rain Indicator
  No,                                     !- Snow Indicator
  21,                                     !- Day of Month
  1,                                      !- Month
  WinterDesignDay,                        !- Day Type
  No,                                     !- Daylight Saving Time Indicator
  Wetbulb,                                !- Humidity Condition Type
  ,                                       !- Humidity Condition Day Schedule Name
  -40,                                    !- Wetbulb or DewPoint at Maximum Dry-Bulb {C}
  ,                                       !- Humidity Ratio at Maximum Dry-Bulb {kgWater/kgDryAir}
  ,                                       !- Enthalpy at Maximum Dry-Bulb {J/kg}
  DefaultMultipliers,                     !- Dry-Bulb Temperature Range Modifier Type
  ,                                       !- Dry-Bulb Temperature Range Modifier Day Schedule Name
  ASHRAEClearSky;                         !- Solar Model Indicator

OS:ClimateZones,
  {de4b1b49-4b8b-40f8-86f6-bd4f444b2840}, !- Handle
  ASHRAE,                                 !- Climate Zone Institution Name 1
  ANSI/ASHRAE Standard 169,               !- Climate Zone Document Name 1
  2006,                                   !- Climate Zone Document Year 1
  8;                                      !- Climate Zone Value 1

OS:Site:GroundTemperature:Shallow,
  {a1f6fae3-1850-4bcd-af0d-0afd232442c8}, !- Handle
  -14.3,                                  !- January Surface Ground Temperature {C}
  -20.7,                                  !- February Surface Ground Temperature {C}
  -22.4,                                  !- March Surface Ground Temperature {C}
  -20.9,                                  !- April Surface Ground Temperature {C}
  -12.3,                                  !- May Surface Ground Temperature {C}
  -2.6,                                   !- June Surface Ground Temperature {C}
  6.6,                                    !- July Surface Ground Temperature {C}
  13.2,                                   !- August Surface Ground Temperature {C}
  15.1,                                   !- September Surface Ground Temperature {C}
  12,                                     !- October Surface Ground Temperature {C}
  4.5,                                    !- November Surface Ground Temperature {C}
  -4.9;                                   !- December Surface Ground Temperature {C}

OS:Site:GroundTemperature:Deep,
  {2ae50209-74fe-4b25-ac0d-79bac6457d9c}, !- Handle
  -4.7,                                   !- January Deep Ground Temperature {C}
  -9.4,                                   !- February Deep Ground Temperature {C}
  -12.3,                                  !- March Deep Ground Temperature {C}
  -13.2,                                  !- April Deep Ground Temperature {C}
  -11.5,                                  !- May Deep Ground Temperature {C}
  -7.6,                                   !- June Deep Ground Temperature {C}
  -2.8,                                   !- July Deep Ground Temperature {C}
  1.9,                                    !- August Deep Ground Temperature {C}
  5.1,                                    !- September Deep Ground Temperature {C}
  5.8,                                    !- October Deep Ground Temperature {C}
  4,                                      !- November Deep Ground Temperature {C}
  0.2;                                    !- December Deep Ground Temperature {C}

OS:Site:GroundTemperature:FCfactorMethod,
  {ab057eba-4ab5-4bfd-996b-d273c1878aa6}, !- Handle
  0.1,                                    !- January Ground Temperature {C}
  -14.7,                                  !- February Ground Temperature {C}
  -20.9,                                  !- March Ground Temperature {C}
  -23.8,                                  !- April Ground Temperature {C}
  -22.4,                                  !- May Ground Temperature {C}
  -18.3,                                  !- June Ground Temperature {C}
  -6.9,                                   !- July Ground Temperature {C}
  7.1,                                    !- August Ground Temperature {C}
  14.9,                                   !- September Ground Temperature {C}
  17.7,                                   !- October Ground Temperature {C}
  15.3,                                   !- November Ground Temperature {C}
  8;                                      !- December Ground Temperature {C}

OS:AdditionalProperties,
  {215bce79-0128-4d68-a13d-3225aa3016ad}, !- Handle
  {a6d9b45b-2723-43c6-8355-1e3d52bed681}, !- Object Name
  space_conditioning_category,            !- Feature Name 1
  String,                                 !- Feature Data Type 1
  unconditioned;                          !- Feature Value 1

OS:AdditionalProperties,
  {8cd4fe8e-c8e8-4af3-9260-33d0c6c465bc}, !- Handle
  {d48cb50c-3a07-4ed6-baac-fe451a3f5495}, !- Object Name
  space_conditioning_category,            !- Feature Name 1
  String,                                 !- Feature Data Type 1
  nonresconditioned;                      !- Feature Value 1

OS:AdditionalProperties,
  {8864d423-598b-432a-8e4c-be03e0e7228b}, !- Handle
  {77d3cfbe-7d30-4aaf-86db-75976a798830}, !- Object Name
  space_conditioning_category,            !- Feature Name 1
  String,                                 !- Feature Data Type 1
  nonresconditioned;                      !- Feature Value 1

OS:AdditionalProperties,
  {e4e5a297-d2ad-40ed-a232-4a40257ae209}, !- Handle
  {57a0612b-80fa-4a4f-8704-b192e6d39f92}; !- Object Name

OS:Rendering:Color,
  {5911021f-cfb6-41b9-9aa8-af018f3dcfa9}, !- Handle
  Space Function - undefined - 1,         !- Name
  255,                                    !- Rendering Red Value
  255,                                    !- Rendering Green Value
  255;                                    !- Rendering Blue Value

OS:DesignSpecification:OutdoorAir,
  {0a944589-6dcc-4de5-848a-1f7df48d373f}, !- Handle
  Space Function - undefined - Ventilation, !- Name
  ,                                       !- Outdoor Air Method
  0,                                      !- Outdoor Air Flow per Person {m3/s-person}
  0,                                      !- Outdoor Air Flow per Floor Area {m3/s-m2}
  ,                                       !- Outdoor Air Flow Rate {m3/s}
  0,                                      !- Outdoor Air Flow Air Changes per Hour {1/hr}
  ;                                       !- Outdoor Air Flow Rate Fraction Schedule Name

OS:DefaultScheduleSet,
  {4b2f4300-0f70-48e9-810d-b50b51b752e5}, !- Handle
  Space Function - undefined - Schedule Set, !- Name
  ,                                       !- Hours of Operation Schedule Name
  ,                                       !- Number of People Schedule Name
  ,                                       !- People Activity Level Schedule Name
  ,                                       !- Lighting Schedule Name
  ,                                       !- Electric Equipment Schedule Name
  ,                                       !- Gas Equipment Schedule Name
  ,                                       !- Hot Water Equipment Schedule Name
  ,                                       !- Infiltration Schedule Name
  ,                                       !- Steam Equipment Schedule Name
  ;                                       !- Other Equipment Schedule Name

OS:ThermostatSetpoint:DualSetpoint,
  {539a2244-7de3-4f0a-8ef0-c71e5b787830}, !- Handle
  Space Function - undefined - Thermostat; !- Name

OS:Rendering:Color,
  {5173f514-cf34-4611-8db8-8bf19839bb49}, !- Handle
  Space Function Dining area - family dining, !- Name
  255,                                    !- Rendering Red Value
  255,                                    !- Rendering Green Value
  255;                                    !- Rendering Blue Value

OS:People:Definition,
  {63890af5-ed33-47bc-8965-c89a971b645c}, !- Handle
  Space Function Dining area - family dining People Definition, !- Name
  People/Area,                            !- Number of People Calculation Method
  ,                                       !- Number of People {people}
  0.10003634216273,                       !- People per Space Floor Area {person/m2}
  ,                                       !- Space Floor Area per Person {m2/person}
  0.3;                                    !- Fraction Radiant

OS:People,
  {33f925ec-ad5d-41b7-8f0c-cf1d24686568}, !- Handle
  Space Function Dining area - family dining People, !- Name
  {63890af5-ed33-47bc-8965-c89a971b645c}, !- People Definition Name
  {74d79ecf-87d4-4cbb-ba37-86cfde5c20bb}, !- Space or SpaceType Name
  ,                                       !- Number of People Schedule Name
  ,                                       !- Activity Level Schedule Name
  ,                                       !- Surface Name/Angle Factor List Name
  {3fb2d812-8cdb-4e00-bc60-ce7235522c37}, !- Work Efficiency Schedule Name
  {de2b4928-da91-4217-be94-edc45cc614f4}, !- Clothing Insulation Schedule Name
  {7e06fa87-8b91-4103-bb37-216522fc9044}, !- Air Velocity Schedule Name
  1;                                      !- Multiplier

OS:Schedule:Ruleset,
  {de2b4928-da91-4217-be94-edc45cc614f4}, !- Handle
  Clothing Schedule,                      !- Name
  {871c4c85-88a6-41db-aba1-814b02a0bc4b}, !- Schedule Type Limits Name
  {61987cc4-959d-4e1d-8f54-5423c0bc7275}; !- Default Day Schedule Name

OS:Schedule:Day,
  {61987cc4-959d-4e1d-8f54-5423c0bc7275}, !- Handle
  Clothing Schedule Default Winter Clothes, !- Name
  {871c4c85-88a6-41db-aba1-814b02a0bc4b}, !- Schedule Type Limits Name
  ,                                       !- Interpolate to Timestep
  24,                                     !- Hour 1
  0,                                      !- Minute 1
  1;                                      !- Value Until Time 1

OS:Schedule:Rule,
  {c8f4fa56-d780-4bd3-a760-a617e385cfac}, !- Handle
  Schedule Rule 1,                        !- Name
  {de2b4928-da91-4217-be94-edc45cc614f4}, !- Schedule Ruleset Name
  0,                                      !- Rule Order
  {a245be39-611e-4579-88b4-331dd78cf6d8}, !- Day Schedule Name
  ,                                       !- Apply Sunday
  ,                                       !- Apply Monday
  ,                                       !- Apply Tuesday
  ,                                       !- Apply Wednesday
  ,                                       !- Apply Thursday
  ,                                       !- Apply Friday
  ,                                       !- Apply Saturday
  DateRange,                              !- Date Specification Type
  5,                                      !- Start Month
  1,                                      !- Start Day
  9,                                      !- End Month
  30;                                     !- End Day

OS:Schedule:Day,
  {a245be39-611e-4579-88b4-331dd78cf6d8}, !- Handle
  Clothing Schedule Summer Clothes,       !- Name
  {871c4c85-88a6-41db-aba1-814b02a0bc4b}, !- Schedule Type Limits Name
  ,                                       !- Interpolate to Timestep
  24,                                     !- Hour 1
  0,                                      !- Minute 1
  0.5;                                    !- Value Until Time 1

OS:ScheduleTypeLimits,
  {871c4c85-88a6-41db-aba1-814b02a0bc4b}, !- Handle
  ClothingInsulation,                     !- Name
  0,                                      !- Lower Limit Value
  ,                                       !- Upper Limit Value
  Continuous,                             !- Numeric Type
  ClothingInsulation;                     !- Unit Type

OS:Schedule:Ruleset,
  {7e06fa87-8b91-4103-bb37-216522fc9044}, !- Handle
  Air Velocity Schedule,                  !- Name
  {0b405b1d-732b-4322-a236-af8702bc61bd}, !- Schedule Type Limits Name
  {4051520a-4a92-4898-8d29-53c29e7011c0}; !- Default Day Schedule Name

OS:Schedule:Day,
  {4051520a-4a92-4898-8d29-53c29e7011c0}, !- Handle
  Air Velocity Schedule Default,          !- Name
  {0b405b1d-732b-4322-a236-af8702bc61bd}, !- Schedule Type Limits Name
  ,                                       !- Interpolate to Timestep
  24,                                     !- Hour 1
  0,                                      !- Minute 1
  0.2;                                    !- Value Until Time 1

OS:ScheduleTypeLimits,
  {0b405b1d-732b-4322-a236-af8702bc61bd}, !- Handle
  Velocity,                               !- Name
  0,                                      !- Lower Limit Value
  ,                                       !- Upper Limit Value
  Continuous,                             !- Numeric Type
  Velocity;                               !- Unit Type

OS:Schedule:Ruleset,
  {3fb2d812-8cdb-4e00-bc60-ce7235522c37}, !- Handle
  Work Efficiency Schedule,               !- Name
  {bd59de89-0e02-4f0a-a700-64a44b5b94dd}, !- Schedule Type Limits Name
  {3f08ec58-9e07-44ba-9a19-496c90932ddd}; !- Default Day Schedule Name

OS:Schedule:Day,
  {3f08ec58-9e07-44ba-9a19-496c90932ddd}, !- Handle
  Work Efficiency Schedule Default,       !- Name
  {bd59de89-0e02-4f0a-a700-64a44b5b94dd}, !- Schedule Type Limits Name
  ,                                       !- Interpolate to Timestep
  24,                                     !- Hour 1
  0,                                      !- Minute 1
  0;                                      !- Value Until Time 1

OS:ScheduleTypeLimits,
  {bd59de89-0e02-4f0a-a700-64a44b5b94dd}, !- Handle
  Fractional,                             !- Name
  0,                                      !- Lower Limit Value
  1,                                      !- Upper Limit Value
  Continuous;                             !- Numeric Type

OS:Lights:Definition,
  {fff870a5-315b-424e-840a-c83095a5784f}, !- Handle
  Space Function Dining area - family dining Lights Definition - LED lighting, !- Name
  Watts/Area,                             !- Design Level Calculation Method
  ,                                       !- Lighting Level {W}
  7.59999672777123,                       !- Watts per Space Floor Area {W/m2}
  ,                                       !- Watts per Person {W/person}
  0.2,                                    !- Fraction Radiant
  0.6;                                    !- Fraction Visible

OS:Lights,
  {7910d8f8-6540-497a-880b-d6e7c7745070}, !- Handle
  Space Function Dining area - family dining Lights, !- Name
  {fff870a5-315b-424e-840a-c83095a5784f}, !- Lights Definition Name
  {74d79ecf-87d4-4cbb-ba37-86cfde5c20bb}, !- Space or SpaceType Name
  ,                                       !- Schedule Name
  1,                                      !- Fraction Replaceable
  ,                                       !- Multiplier
  General;                                !- End-Use Subcategory

OS:ElectricEquipment:Definition,
  {23f12fd2-a27f-4bdd-a86a-87dd53930569}, !- Handle
  Space Function Dining area - family dining Elec Equip Definition, !- Name
  Watts/Area,                             !- Design Level Calculation Method
  ,                                       !- Design Level {W}
  1.0003634216273,                        !- Watts per Space Floor Area {W/m2}
  ,                                       !- Watts per Person {W/person}
  ,                                       !- Fraction Latent
  0.5;                                    !- Fraction Radiant

OS:ElectricEquipment,
  {29145b07-96cd-4339-9f7e-daa3acd7605d}, !- Handle
  Space Function Dining area - family dining Elec Equip, !- Name
  {23f12fd2-a27f-4bdd-a86a-87dd53930569}, !- Electric Equipment Definition Name
  {74d79ecf-87d4-4cbb-ba37-86cfde5c20bb}, !- Space or SpaceType Name
  ,                                       !- Schedule Name
  ,                                       !- Multiplier
  General;                                !- End-Use Subcategory

OS:DesignSpecification:OutdoorAir,
  {d8ebd889-722c-4ca5-9e1f-6edcaeb9df1f}, !- Handle
  Space Function Dining area - family dining Ventilation, !- Name
  Sum,                                    !- Outdoor Air Method
  0.071094162843648,                      !- Outdoor Air Flow per Person {m3/s-person}
  ,                                       !- Outdoor Air Flow per Floor Area {m3/s-m2}
  ,                                       !- Outdoor Air Flow Rate {m3/s}
  ,                                       !- Outdoor Air Flow Air Changes per Hour {1/hr}
  ;                                       !- Outdoor Air Flow Rate Fraction Schedule Name

OS:DefaultScheduleSet,
  {658ca590-fa40-4540-92e7-c4c459403214}, !- Handle
  Space Function Dining area - family dining Schedule Set, !- Name
  ,                                       !- Hours of Operation Schedule Name
  {185d1890-5f74-40f1-8c64-032a7e1698ac}, !- Number of People Schedule Name
  {4fa1dcf6-6262-447a-80da-fac8d4763ffc}, !- People Activity Level Schedule Name
  {80417664-b680-4ff4-83b5-9c559f75adb3}, !- Lighting Schedule Name
  {e6fc5534-da7a-4d4d-a410-bffb3cccef83}, !- Electric Equipment Schedule Name
  ,                                       !- Gas Equipment Schedule Name
  ,                                       !- Hot Water Equipment Schedule Name
  ,                                       !- Infiltration Schedule Name
  ,                                       !- Steam Equipment Schedule Name
  ;                                       !- Other Equipment Schedule Name

OS:Schedule:Ruleset,
  {185d1890-5f74-40f1-8c64-032a7e1698ac}, !- Handle
  NECB-B-Occupancy,                       !- Name
  {bd59de89-0e02-4f0a-a700-64a44b5b94dd}, !- Schedule Type Limits Name
  {91304cf9-ff85-4282-8816-34d09bd05622}; !- Default Day Schedule Name

OS:Schedule:Day,
  {91304cf9-ff85-4282-8816-34d09bd05622}, !- Handle
  NECB-B-Occupancy Default,               !- Name
  {bd59de89-0e02-4f0a-a700-64a44b5b94dd}, !- Schedule Type Limits Name
  No,                                     !- Interpolate to Timestep
  1,                                      !- Hour 1
  0,                                      !- Minute 1
  0.3,                                    !- Value Until Time 1
  2,                                      !- Hour 2
  0,                                      !- Minute 2
  0.1,                                    !- Value Until Time 2
  9,                                      !- Hour 3
  0,                                      !- Minute 3
  0,                                      !- Value Until Time 3
  10,                                     !- Hour 4
  0,                                      !- Minute 4
  0.1,                                    !- Value Until Time 4
  11,                                     !- Hour 5
  0,                                      !- Minute 5
  0.2,                                    !- Value Until Time 5
  12,                                     !- Hour 6
  0,                                      !- Minute 6
  0.5,                                    !- Value Until Time 6
  13,                                     !- Hour 7
  0,                                      !- Minute 7
  0.9,                                    !- Value Until Time 7
  14,                                     !- Hour 8
  0,                                      !- Minute 8
  0.8,                                    !- Value Until Time 8
  15,                                     !- Hour 9
  0,                                      !- Minute 9
  0.5,                                    !- Value Until Time 9
  17,                                     !- Hour 10
  0,                                      !- Minute 10
  0.2,                                    !- Value Until Time 10
  18,                                     !- Hour 11
  0,                                      !- Minute 11
  0.3,                                    !- Value Until Time 11
  19,                                     !- Hour 12
  0,                                      !- Minute 12
  0.6,                                    !- Value Until Time 12
  22,                                     !- Hour 13
  0,                                      !- Minute 13
  0.9,                                    !- Value Until Time 13
  23,                                     !- Hour 14
  0,                                      !- Minute 14
  0.6,                                    !- Value Until Time 14
  24,                                     !- Hour 15
  0,                                      !- Minute 15
  0.4;                                    !- Value Until Time 15

OS:Schedule:Rule,
  {14aa8b1c-a21e-48c8-b2c9-f1d47ac687a7}, !- Handle
  Schedule Rule 2,                        !- Name
  {185d1890-5f74-40f1-8c64-032a7e1698ac}, !- Schedule Ruleset Name
  2,                                      !- Rule Order
  {cd28604b-c6df-433c-9817-5c302b7e4088}, !- Day Schedule Name
  ,                                       !- Apply Sunday
  Yes,                                    !- Apply Monday
  Yes,                                    !- Apply Tuesday
  Yes,                                    !- Apply Wednesday
  Yes,                                    !- Apply Thursday
  Yes,                                    !- Apply Friday
  ,                                       !- Apply Saturday
  DateRange,                              !- Date Specification Type
  1,                                      !- Start Month
  1,                                      !- Start Day
  12,                                     !- End Month
  31;                                     !- End Day

OS:Schedule:Day,
  {cd28604b-c6df-433c-9817-5c302b7e4088}, !- Handle
  NECB-B-Occupancy Default|Wkdy Day,      !- Name
  {bd59de89-0e02-4f0a-a700-64a44b5b94dd}, !- Schedule Type Limits Name
  No,                                     !- Interpolate to Timestep
  1,                                      !- Hour 1
  0,                                      !- Minute 1
  0.3,                                    !- Value Until Time 1
  2,                                      !- Hour 2
  0,                                      !- Minute 2
  0.1,                                    !- Value Until Time 2
  9,                                      !- Hour 3
  0,                                      !- Minute 3
  0,                                      !- Value Until Time 3
  10,                                     !- Hour 4
  0,                                      !- Minute 4
  0.1,                                    !- Value Until Time 4
  11,                                     !- Hour 5
  0,                                      !- Minute 5
  0.2,                                    !- Value Until Time 5
  12,                                     !- Hour 6
  0,                                      !- Minute 6
  0.5,                                    !- Value Until Time 6
  13,                                     !- Hour 7
  0,                                      !- Minute 7
  0.9,                                    !- Value Until Time 7
  14,                                     !- Hour 8
  0,                                      !- Minute 8
  0.8,                                    !- Value Until Time 8
  15,                                     !- Hour 9
  0,                                      !- Minute 9
  0.5,                                    !- Value Until Time 9
  17,                                     !- Hour 10
  0,                                      !- Minute 10
  0.2,                                    !- Value Until Time 10
  18,                                     !- Hour 11
  0,                                      !- Minute 11
  0.3,                                    !- Value Until Time 11
  19,                                     !- Hour 12
  0,                                      !- Minute 12
  0.6,                                    !- Value Until Time 12
  22,                                     !- Hour 13
  0,                                      !- Minute 13
  0.9,                                    !- Value Until Time 13
  23,                                     !- Hour 14
  0,                                      !- Minute 14
  0.6,                                    !- Value Until Time 14
  24,                                     !- Hour 15
  0,                                      !- Minute 15
  0.4;                                    !- Value Until Time 15

OS:Schedule:Rule,
  {e8cd04ab-6b91-4cc7-baee-b0daaf7c02ae}, !- Handle
  Schedule Rule 3,                        !- Name
  {185d1890-5f74-40f1-8c64-032a7e1698ac}, !- Schedule Ruleset Name
  1,                                      !- Rule Order
  {5e09fb27-5994-45d0-888f-97c5476a8840}, !- Day Schedule Name
  ,                                       !- Apply Sunday
  ,                                       !- Apply Monday
  ,                                       !- Apply Tuesday
  ,                                       !- Apply Wednesday
  ,                                       !- Apply Thursday
  ,                                       !- Apply Friday
  Yes,                                    !- Apply Saturday
  DateRange,                              !- Date Specification Type
  1,                                      !- Start Month
  1,                                      !- Start Day
  12,                                     !- End Month
  31;                                     !- End Day

OS:Schedule:Day,
  {5e09fb27-5994-45d0-888f-97c5476a8840}, !- Handle
  NECB-B-Occupancy Sat Day,               !- Name
  {bd59de89-0e02-4f0a-a700-64a44b5b94dd}, !- Schedule Type Limits Name
  No,                                     !- Interpolate to Timestep
  1,                                      !- Hour 1
  0,                                      !- Minute 1
  0.5,                                    !- Value Until Time 1
  2,                                      !- Hour 2
  0,                                      !- Minute 2
  0.3,                                    !- Value Until Time 2
  9,                                      !- Hour 3
  0,                                      !- Minute 3
  0,                                      !- Value Until Time 3
  10,                                     !- Hour 4
  0,                                      !- Minute 4
  0.1,                                    !- Value Until Time 4
  11,                                     !- Hour 5
  0,                                      !- Minute 5
  0.2,                                    !- Value Until Time 5
  12,                                     !- Hour 6
  0,                                      !- Minute 6
  0.5,                                    !- Value Until Time 6
  13,                                     !- Hour 7
  0,                                      !- Minute 7
  0.9,                                    !- Value Until Time 7
  14,                                     !- Hour 8
  0,                                      !- Minute 8
  0.8,                                    !- Value Until Time 8
  15,                                     !- Hour 9
  0,                                      !- Minute 9
  0.5,                                    !- Value Until Time 9
  17,                                     !- Hour 10
  0,                                      !- Minute 10
  0.2,                                    !- Value Until Time 10
  18,                                     !- Hour 11
  0,                                      !- Minute 11
  0.3,                                    !- Value Until Time 11
  19,                                     !- Hour 12
  0,                                      !- Minute 12
  0.6,                                    !- Value Until Time 12
  22,                                     !- Hour 13
  0,                                      !- Minute 13
  0.9,                                    !- Value Until Time 13
  24,                                     !- Hour 14
  0,                                      !- Minute 14
  0.6;                                    !- Value Until Time 14

OS:Schedule:Rule,
  {2547a413-fb05-429f-9b8a-a6375a8a26e4}, !- Handle
  Schedule Rule 4,                        !- Name
  {185d1890-5f74-40f1-8c64-032a7e1698ac}, !- Schedule Ruleset Name
  0,                                      !- Rule Order
  {2d9b04a3-e4c6-4f24-820d-03ae8948df4d}, !- Day Schedule Name
  Yes,                                    !- Apply Sunday
  ,                                       !- Apply Monday
  ,                                       !- Apply Tuesday
  ,                                       !- Apply Wednesday
  ,                                       !- Apply Thursday
  ,                                       !- Apply Friday
  ,                                       !- Apply Saturday
  DateRange,                              !- Date Specification Type
  1,                                      !- Start Month
  1,                                      !- Start Day
  12,                                     !- End Month
  31;                                     !- End Day

OS:Schedule:Day,
  {2d9b04a3-e4c6-4f24-820d-03ae8948df4d}, !- Handle
  NECB-B-Occupancy Sun|Hol Day,           !- Name
  {bd59de89-0e02-4f0a-a700-64a44b5b94dd}, !- Schedule Type Limits Name
  No,                                     !- Interpolate to Timestep
  1,                                      !- Hour 1
  0,                                      !- Minute 1
  0.1,                                    !- Value Until Time 1
  2,                                      !- Hour 2
  0,                                      !- Minute 2
  0.3,                                    !- Value Until Time 2
  10,                                     !- Hour 3
  0,                                      !- Minute 3
  0,                                      !- Value Until Time 3
  11,                                     !- Hour 4
  0,                                      !- Minute 4
  0.1,                                    !- Value Until Time 4
  12,                                     !- Hour 5
  0,                                      !- Minute 5
  0.4,                                    !- Value Until Time 5
  14,                                     !- Hour 6
  0,                                      !- Minute 6
  0.5,                                    !- Value Until Time 6
  15,                                     !- Hour 7
  0,                                      !- Minute 7
  0.4,                                    !- Value Until Time 7
  18,                                     !- Hour 8
  0,                                      !- Minute 8
  0.2,                                    !- Value Until Time 8
  19,                                     !- Hour 9
  0,                                      !- Minute 9
  0.5,                                    !- Value Until Time 9
  21,                                     !- Hour 10
  0,                                      !- Minute 10
  0.7,                                    !- Value Until Time 10
  22,                                     !- Hour 11
  0,                                      !- Minute 11
  0.5,                                    !- Value Until Time 11
  23,                                     !- Hour 12
  0,                                      !- Minute 12
  0.3,                                    !- Value Until Time 12
  24,                                     !- Hour 13
  0,                                      !- Minute 13
  0.1;                                    !- Value Until Time 13

OS:Schedule:Ruleset,
  {4fa1dcf6-6262-447a-80da-fac8d4763ffc}, !- Handle
  NECB-Activity,                          !- Name
  {c8eacd7a-38ca-42c4-b64f-f04c8eb4ac5d}, !- Schedule Type Limits Name
  {4ee47a38-7f7b-48c0-8df0-8cc6ee0826d6}, !- Default Day Schedule Name
  {6cb3ce3f-74e2-4e37-9b44-92454547b195}, !- Summer Design Day Schedule Name
  {15ed7a1d-c077-499d-ac9a-31fd00dc333f}; !- Winter Design Day Schedule Name

OS:Schedule:Day,
  {4ee47a38-7f7b-48c0-8df0-8cc6ee0826d6}, !- Handle
  NECB-Activity Default,                  !- Name
  {c8eacd7a-38ca-42c4-b64f-f04c8eb4ac5d}, !- Schedule Type Limits Name
  No,                                     !- Interpolate to Timestep
  24,                                     !- Hour 1
  0,                                      !- Minute 1
  130;                                    !- Value Until Time 1

OS:Schedule:Day,
  {becb9920-7676-431e-9305-5f383f2ace6e}, !- Handle
  Schedule Day 1,                         !- Name
  ,                                       !- Schedule Type Limits Name
  ,                                       !- Interpolate to Timestep
  24,                                     !- Hour 1
  0,                                      !- Minute 1
  0;                                      !- Value Until Time 1

OS:Schedule:Day,
  {15ed7a1d-c077-499d-ac9a-31fd00dc333f}, !- Handle
  NECB-Activity Winter Design Day,        !- Name
  {c8eacd7a-38ca-42c4-b64f-f04c8eb4ac5d}, !- Schedule Type Limits Name
  No,                                     !- Interpolate to Timestep
  24,                                     !- Hour 1
  0,                                      !- Minute 1
  130;                                    !- Value Until Time 1

OS:Schedule:Day,
  {d141a476-69ec-4fe6-a2ca-2ded5c67d496}, !- Handle
  Schedule Day 2,                         !- Name
  ,                                       !- Schedule Type Limits Name
  ,                                       !- Interpolate to Timestep
  24,                                     !- Hour 1
  0,                                      !- Minute 1
  0;                                      !- Value Until Time 1

OS:Schedule:Day,
  {6cb3ce3f-74e2-4e37-9b44-92454547b195}, !- Handle
  NECB-Activity Summer Design Day,        !- Name
  {c8eacd7a-38ca-42c4-b64f-f04c8eb4ac5d}, !- Schedule Type Limits Name
  No,                                     !- Interpolate to Timestep
  24,                                     !- Hour 1
  0,                                      !- Minute 1
  130;                                    !- Value Until Time 1

OS:ScheduleTypeLimits,
  {c8eacd7a-38ca-42c4-b64f-f04c8eb4ac5d}, !- Handle
  ActivityLevel,                          !- Name
  0,                                      !- Lower Limit Value
  ,                                       !- Upper Limit Value
  Continuous,                             !- Numeric Type
  ActivityLevel;                          !- Unit Type

OS:Schedule:Ruleset,
  {80417664-b680-4ff4-83b5-9c559f75adb3}, !- Handle
  NECB-B-Lighting,                        !- Name
  {bd59de89-0e02-4f0a-a700-64a44b5b94dd}, !- Schedule Type Limits Name
  {363ce915-9bad-4221-953f-c35e8d6d9649}; !- Default Day Schedule Name

OS:Schedule:Day,
  {363ce915-9bad-4221-953f-c35e8d6d9649}, !- Handle
  NECB-B-Lighting Default,                !- Name
  {bd59de89-0e02-4f0a-a700-64a44b5b94dd}, !- Schedule Type Limits Name
  No,                                     !- Interpolate to Timestep
  1,                                      !- Hour 1
  0,                                      !- Minute 1
  0.9,                                    !- Value Until Time 1
  2,                                      !- Hour 2
  0,                                      !- Minute 2
  0.5,                                    !- Value Until Time 2
  9,                                      !- Hour 3
  0,                                      !- Minute 3
  0.1,                                    !- Value Until Time 3
  10,                                     !- Hour 4
  0,                                      !- Minute 4
  0.5,                                    !- Value Until Time 4
  11,                                     !- Hour 5
  0,                                      !- Minute 5
  0.7,                                    !- Value Until Time 5
  24,                                     !- Hour 6
  0,                                      !- Minute 6
  0.9;                                    !- Value Until Time 6

OS:Schedule:Rule,
  {eb3f464d-3ee7-4aed-8a7c-30713f6aed06}, !- Handle
  Schedule Rule 5,                        !- Name
  {80417664-b680-4ff4-83b5-9c559f75adb3}, !- Schedule Ruleset Name
  2,                                      !- Rule Order
  {111c6caf-6f7f-4d54-b926-897027a77b92}, !- Day Schedule Name
  ,                                       !- Apply Sunday
  Yes,                                    !- Apply Monday
  Yes,                                    !- Apply Tuesday
  Yes,                                    !- Apply Wednesday
  Yes,                                    !- Apply Thursday
  Yes,                                    !- Apply Friday
  ,                                       !- Apply Saturday
  DateRange,                              !- Date Specification Type
  1,                                      !- Start Month
  1,                                      !- Start Day
  12,                                     !- End Month
  31;                                     !- End Day

OS:Schedule:Day,
  {111c6caf-6f7f-4d54-b926-897027a77b92}, !- Handle
  NECB-B-Lighting Default|Wkdy Day,       !- Name
  {bd59de89-0e02-4f0a-a700-64a44b5b94dd}, !- Schedule Type Limits Name
  No,                                     !- Interpolate to Timestep
  1,                                      !- Hour 1
  0,                                      !- Minute 1
  0.9,                                    !- Value Until Time 1
  2,                                      !- Hour 2
  0,                                      !- Minute 2
  0.5,                                    !- Value Until Time 2
  9,                                      !- Hour 3
  0,                                      !- Minute 3
  0.1,                                    !- Value Until Time 3
  10,                                     !- Hour 4
  0,                                      !- Minute 4
  0.5,                                    !- Value Until Time 4
  11,                                     !- Hour 5
  0,                                      !- Minute 5
  0.7,                                    !- Value Until Time 5
  24,                                     !- Hour 6
  0,                                      !- Minute 6
  0.9;                                    !- Value Until Time 6

OS:Schedule:Rule,
  {d54e65f0-dc23-46e0-91aa-5dfc6b55dc17}, !- Handle
  Schedule Rule 6,                        !- Name
  {80417664-b680-4ff4-83b5-9c559f75adb3}, !- Schedule Ruleset Name
  1,                                      !- Rule Order
  {af5ec931-5aed-426b-9905-550cb7caa389}, !- Day Schedule Name
  ,                                       !- Apply Sunday
  ,                                       !- Apply Monday
  ,                                       !- Apply Tuesday
  ,                                       !- Apply Wednesday
  ,                                       !- Apply Thursday
  ,                                       !- Apply Friday
  Yes,                                    !- Apply Saturday
  DateRange,                              !- Date Specification Type
  1,                                      !- Start Month
  1,                                      !- Start Day
  12,                                     !- End Month
  31;                                     !- End Day

OS:Schedule:Day,
  {af5ec931-5aed-426b-9905-550cb7caa389}, !- Handle
  NECB-B-Lighting Sat Day,                !- Name
  {bd59de89-0e02-4f0a-a700-64a44b5b94dd}, !- Schedule Type Limits Name
  No,                                     !- Interpolate to Timestep
  1,                                      !- Hour 1
  0,                                      !- Minute 1
  0.9,                                    !- Value Until Time 1
  2,                                      !- Hour 2
  0,                                      !- Minute 2
  0.5,                                    !- Value Until Time 2
  9,                                      !- Hour 3
  0,                                      !- Minute 3
  0.1,                                    !- Value Until Time 3
  10,                                     !- Hour 4
  0,                                      !- Minute 4
  0.5,                                    !- Value Until Time 4
  11,                                     !- Hour 5
  0,                                      !- Minute 5
  0.7,                                    !- Value Until Time 5
  24,                                     !- Hour 6
  0,                                      !- Minute 6
  0.9;                                    !- Value Until Time 6

OS:Schedule:Rule,
  {bb4aa561-d764-41f2-ae4a-d7e02dbc7b46}, !- Handle
  Schedule Rule 7,                        !- Name
  {80417664-b680-4ff4-83b5-9c559f75adb3}, !- Schedule Ruleset Name
  0,                                      !- Rule Order
  {2bfe174a-3dcc-4db8-a4cc-23bfacc009f6}, !- Day Schedule Name
  Yes,                                    !- Apply Sunday
  ,                                       !- Apply Monday
  ,                                       !- Apply Tuesday
  ,                                       !- Apply Wednesday
  ,                                       !- Apply Thursday
  ,                                       !- Apply Friday
  ,                                       !- Apply Saturday
  DateRange,                              !- Date Specification Type
  1,                                      !- Start Month
  1,                                      !- Start Day
  12,                                     !- End Month
  31;                                     !- End Day

OS:Schedule:Day,
  {2bfe174a-3dcc-4db8-a4cc-23bfacc009f6}, !- Handle
  NECB-B-Lighting Sun|Hol Day,            !- Name
  {bd59de89-0e02-4f0a-a700-64a44b5b94dd}, !- Schedule Type Limits Name
  No,                                     !- Interpolate to Timestep
  2,                                      !- Hour 1
  0,                                      !- Minute 1
  0.5,                                    !- Value Until Time 1
  10,                                     !- Hour 2
  0,                                      !- Minute 2
  0.1,                                    !- Value Until Time 2
  11,                                     !- Hour 3
  0,                                      !- Minute 3
  0.5,                                    !- Value Until Time 3
  23,                                     !- Hour 4
  0,                                      !- Minute 4
  0.9,                                    !- Value Until Time 4
  24,                                     !- Hour 5
  0,                                      !- Minute 5
  0.5;                                    !- Value Until Time 5

OS:Schedule:Ruleset,
  {e6fc5534-da7a-4d4d-a410-bffb3cccef83}, !- Handle
  NECB-B-Electric-Equipment,              !- Name
  {bd59de89-0e02-4f0a-a700-64a44b5b94dd}, !- Schedule Type Limits Name
  {c935b837-010d-495e-8fa0-08601b8e8691}; !- Default Day Schedule Name

OS:Schedule:Day,
  {c935b837-010d-495e-8fa0-08601b8e8691}, !- Handle
  NECB-B-Electric-Equipment Default,      !- Name
  {bd59de89-0e02-4f0a-a700-64a44b5b94dd}, !- Schedule Type Limits Name
[...]
  Linear,                                 !- Extrapolation Method
  0,                                      !- Minimum Value {BasedOnField A5}
  10,                                     !- Maximum Value {BasedOnField A5}
  ,                                       !- Normalization Reference Value {BasedOnField A5}
  Dimensionless,                          !- Unit Type
  ,                                       !- External File Name
  ,                                       !- External File Column Number
  ,                                       !- External File Starting Row Number
  0.75,                                   !- Value 1
  1;                                      !- Value 2

OS:Table:IndependentVariable,
  {59c858b2-bebe-4aa3-81e3-a397dcf5ba77}, !- Handle
  sys_3|mixed|shr>none|sc>dx|sh>c-e|ssf>cv|zh>b-hw|zc>none|srf>none| 1 ERV_LatentHeating_IndependentVariable, !- Name
  Linear,                                 !- Interpolation Method
  Linear,                                 !- Extrapolation Method
  0,                                      !- Minimum Value {BasedOnField A5}
  10,                                     !- Maximum Value {BasedOnField A5}
  ,                                       !- Normalization Reference Value {BasedOnField A5}
  Dimensionless,                          !- Unit Type
  ,                                       !- External File Name
  ,                                       !- External File Column Number
  ,                                       !- External File Starting Row Number
  0.75,                                   !- Value 1
  1;                                      !- Value 2

OS:Table:IndependentVariable,
  {85cb5e06-62ff-47b0-a007-5ba8ec55a443}, !- Handle
  sys_3|mixed|shr>none|sc>dx|sh>c-e|ssf>cv|zh>b-hw|zc>none|srf>none| 1 ERV_SensibleCooling_IndependentVariable, !- Name
  Linear,                                 !- Interpolation Method
  Linear,                                 !- Extrapolation Method
  0,                                      !- Minimum Value {BasedOnField A5}
  10,                                     !- Maximum Value {BasedOnField A5}
  ,                                       !- Normalization Reference Value {BasedOnField A5}
  Dimensionless,                          !- Unit Type
  ,                                       !- External File Name
  ,                                       !- External File Column Number
  ,                                       !- External File Starting Row Number
  0.75,                                   !- Value 1
  1;                                      !- Value 2

OS:Table:IndependentVariable,
  {9362898d-1102-48a4-9757-31fb3d13e570}, !- Handle
  sys_3|mixed|shr>none|sc>dx|sh>c-e|ssf>cv|zh>b-hw|zc>none|srf>none| 1 ERV_LatentCooling_IndependentVariable, !- Name
  Linear,                                 !- Interpolation Method
  Linear,                                 !- Extrapolation Method
  0,                                      !- Minimum Value {BasedOnField A5}
  10,                                     !- Maximum Value {BasedOnField A5}
  ,                                       !- Normalization Reference Value {BasedOnField A5}
  Dimensionless,                          !- Unit Type
  ,                                       !- External File Name
  ,                                       !- External File Column Number
  ,                                       !- External File Starting Row Number
  0.75,                                   !- Value 1
  1;                                      !- Value 2

OS:Node,
  {c9b35dab-8572-4746-baad-579e9d119091}, !- Handle
  sys_3|mixed|shr>none|sc>dx|sh>c-e|ssf>cv|zh>b-hw|zc>none|srf>none| 1 ERV Primary Outlet Air Node, !- Name
  {ff298975-174b-4892-a9b9-596fe8951a27}, !- Inlet Port
  {9324d76a-8973-47a6-848e-7ea0d38ed16d}; !- Outlet Port

OS:Connection,
  {3db67324-b840-4044-b00f-5e587b6f3f1b}, !- Handle
  {286319b8-c8d1-4587-bc4d-757573b69ce6}, !- Source Object
  3,                                      !- Outlet Port
  {88c64c91-e841-4f97-839f-60fd9fb86f2c}, !- Target Object
  8;                                      !- Inlet Port

OS:Connection,
  {ff298975-174b-4892-a9b9-596fe8951a27}, !- Handle
  {88c64c91-e841-4f97-839f-60fd9fb86f2c}, !- Source Object
  9,                                      !- Outlet Port
  {c9b35dab-8572-4746-baad-579e9d119091}, !- Target Object
  2;                                      !- Inlet Port

OS:Connection,
  {9324d76a-8973-47a6-848e-7ea0d38ed16d}, !- Handle
  {c9b35dab-8572-4746-baad-579e9d119091}, !- Source Object
  3,                                      !- Outlet Port
  {567efde7-8a15-48f8-8eae-f72cdbbc37ff}, !- Target Object
  6;                                      !- Inlet Port

OS:Node,
  {bb984a18-e2a4-4975-a3b2-c7adf36fa014}, !- Handle
  sys_3|mixed|shr>none|sc>dx|sh>c-e|ssf>cv|zh>b-hw|zc>none|srf>none| 1 ERV Secondary Inlet Air Node, !- Name
  {835bd8f4-04c5-441f-8361-36ae0806ef5c}, !- Inlet Port
  {886ecc7b-2d41-43a0-b479-3398de739225}; !- Outlet Port

OS:Connection,
  {835bd8f4-04c5-441f-8361-36ae0806ef5c}, !- Handle
  {567efde7-8a15-48f8-8eae-f72cdbbc37ff}, !- Source Object
  7,                                      !- Outlet Port
  {bb984a18-e2a4-4975-a3b2-c7adf36fa014}, !- Target Object
  2;                                      !- Inlet Port

OS:Connection,
  {886ecc7b-2d41-43a0-b479-3398de739225}, !- Handle
  {bb984a18-e2a4-4975-a3b2-c7adf36fa014}, !- Source Object
  3,                                      !- Outlet Port
  {88c64c91-e841-4f97-839f-60fd9fb86f2c}, !- Target Object
  10;                                     !- Inlet Port

OS:Connection,
  {407195c4-3256-4a6e-9ed7-e245a887dd3d}, !- Handle
  {88c64c91-e841-4f97-839f-60fd9fb86f2c}, !- Source Object
  11,                                     !- Outlet Port
  {889e47c9-c28e-449a-9fd7-5ef1d955695c}, !- Target Object
  2;                                      !- Inlet Port

OS:SetpointManager:OutdoorAirPretreat,
  {7fc36787-2388-41b9-84f2-dd9f668e4270}, !- Handle
  Setpoint Manager Outdoor Air Pretreat 2, !- Name
  ,                                       !- Control Variable
  -99,                                    !- Minimum Setpoint Temperature {C}
  99,                                     !- Maximum Setpoint Temperature {C}
  1e-05,                                  !- Minimum Setpoint Humidity Ratio {kgWater/kgDryAir}
  1,                                      !- Maximum Setpoint Humidity Ratio {kgWater/kgDryAir}
  {b60e8f56-31e6-48b0-b02d-37fa465545ea}, !- Reference Setpoint Node Name
  {b60e8f56-31e6-48b0-b02d-37fa465545ea}, !- Mixed Air Stream Node Name
  {286319b8-c8d1-4587-bc4d-757573b69ce6}, !- Outdoor Air Stream Node Name
  {f6e49576-2c9e-42c6-9b9a-b749438038ad}, !- Return Air Stream Node Name
  {c9b35dab-8572-4746-baad-579e9d119091}; !- Setpoint Node or NodeList Name

OS:Curve:Biquadratic,
  {43d62cad-aa0f-4fd4-ac14-398c786b8e34}, !- Handle
  DXCOOL-NECB2011-REF-CAPFT,              !- Name
  0.867905,                               !- Coefficient1 Constant
  0.0142459,                              !- Coefficient2 x
  0.00055436,                             !- Coefficient3 x**2
  -0.0075575,                             !- Coefficient4 y
  3.3e-05,                                !- Coefficient5 y**2
  -0.0001918,                             !- Coefficient6 x*y
  13,                                     !- Minimum Value of x
  24,                                     !- Maximum Value of x
  24,                                     !- Minimum Value of y
  46;                                     !- Maximum Value of y

OS:Curve:Quadratic,
  {2234220a-0901-48b3-b0e9-1fc09480f2e5}, !- Handle
  DXCOOL-NECB2011-REF-CAPFFLOW,           !- Name
  0.8,                                    !- Coefficient1 Constant
  0.2,                                    !- Coefficient2 x
  0,                                      !- Coefficient3 x**2
  0.5,                                    !- Minimum Value of x
  1.5;                                    !- Maximum Value of x

OS:Curve:Biquadratic,
  {027f5c73-418a-4f73-8de5-8c1b6d620784}, !- Handle
  DXCOOL-NECB2011-REF-COOLEIRFT,          !- Name
  0.1141714,                              !- Coefficient1 Constant
  0.02818224,                             !- Coefficient2 x
  -0.0004199,                             !- Coefficient3 x**2
  0.02141082,                             !- Coefficient4 y
  0.000161028,                            !- Coefficient5 y**2
  -0.000679104,                           !- Coefficient6 x*y
  13,                                     !- Minimum Value of x
  24,                                     !- Maximum Value of x
  24,                                     !- Minimum Value of y
  46;                                     !- Maximum Value of y

OS:Curve:Quadratic,
  {4300b462-9c2e-4188-b8c4-7c75da09d150}, !- Handle
  DXCOOL-NECB2011-REF-COOLEIRFFLOW,       !- Name
  1.1552,                                 !- Coefficient1 Constant
  -0.1808,                                !- Coefficient2 x
  0.0256,                                 !- Coefficient3 x**2
  0.5,                                    !- Minimum Value of x
  1.5;                                    !- Maximum Value of x

OS:Curve:Cubic,
  {f4234053-56b9-4555-98ed-2917c85e3c6c}, !- Handle
  DXCOOL-NECB2011-REF-COOLPLFFPLR,        !- Name
  0.0277,                                 !- Coefficient1 Constant
  4.9151,                                 !- Coefficient2 x
  -8.184,                                 !- Coefficient3 x**2
  4.2702,                                 !- Coefficient4 x**3
  0.7,                                    !- Minimum Value of x
  1;                                      !- Maximum Value of x

OS:Curve:Cubic,
  {d641cd82-7f4b-4883-9bf0-b25788104aa0}, !- Handle
  BOILER-EFFFPLR-NECB2011,                !- Name
  0.3831,                                 !- Coefficient1 Constant
  2.0567,                                 !- Coefficient2 x
  -2.6469,                                !- Coefficient3 x**2
  1.2148,                                 !- Coefficient4 x**3
  0,                                      !- Minimum Value of x
  1;                                      !- Maximum Value of x

OS:Curve:Cubic,
  {00863ef3-4c33-4e84-a1af-789487d91d9e}, !- Handle
  SWH-EFFFPLR-NECB2011,                   !- Name
  0.7576,                                 !- Coefficient1 Constant
  1.0071,                                 !- Coefficient2 x
  -1.4443,                                !- Coefficient3 x**2
  0.6844,                                 !- Coefficient4 x**3
  0,                                      !- Minimum Value of x
  1;                                      !- Maximum Value of x

OS:Table:Lookup,
  {d7277dd6-9ad2-436a-be0d-eb362260cb24}, !- Handle
  sys_3|mixed|shr>none|sc>dx|sh>c-e|ssf>cv|zh>b-hw|zc>none|srf>none| 1 ERV_SensHeatEff 1, !- Name
  {9ec6d4df-65cd-4a84-a50f-7cd50e95b28b}, !- Independent Variable List Name
  DivisorOnly,                            !- Normalization Method
  0.5,                                    !- Normalization Divisor
  0,                                      !- Minimum Output {BasedOnField A5}
  10,                                     !- Maximum Output {BasedOnField A5}
  Dimensionless,                          !- Output Unit Type
  ,                                       !- External File Name
  ,                                       !- External File Column Number
  ,                                       !- External File Starting Row Number
  0.5,                                    !- Output Value 1 {BasedOnField A5}
  0.5;                                    !- Output Value 2 {BasedOnField A5}

OS:ModelObjectList,
  {9ec6d4df-65cd-4a84-a50f-7cd50e95b28b}, !- Handle
  Table Lookup 1 Independent Variable List 8, !- Name
  {c0cc9ad1-28f7-4c56-ace9-99ae0ead949d}; !- Model Object 1

OS:Table:Lookup,
  {7974f10c-1d3b-4742-9b55-75c3ac36efef}, !- Handle
  sys_3|mixed|shr>none|sc>dx|sh>c-e|ssf>cv|zh>b-hw|zc>none|srf>none| 1 ERV_LatHeatEff 1, !- Name
  {981f8269-a96c-4bed-b891-618a208d267b}, !- Independent Variable List Name
  DivisorOnly,                            !- Normalization Method
  0.5,                                    !- Normalization Divisor
  0,                                      !- Minimum Output {BasedOnField A5}
  10,                                     !- Maximum Output {BasedOnField A5}
  Dimensionless,                          !- Output Unit Type
  ,                                       !- External File Name
  ,                                       !- External File Column Number
  ,                                       !- External File Starting Row Number
  0.5,                                    !- Output Value 1 {BasedOnField A5}
  0.5;                                    !- Output Value 2 {BasedOnField A5}

OS:ModelObjectList,
  {981f8269-a96c-4bed-b891-618a208d267b}, !- Handle
  Table Lookup 1 Independent Variable List 9, !- Name
  {59c858b2-bebe-4aa3-81e3-a397dcf5ba77}; !- Model Object 1

OS:Table:Lookup,
  {b6137c48-eb35-44eb-bef7-8fd35b069a81}, !- Handle
  sys_3|mixed|shr>none|sc>dx|sh>c-e|ssf>cv|zh>b-hw|zc>none|srf>none| 1 ERV_SensCoolEff 1, !- Name
  {3a22c9f0-28ba-40d4-b07e-e5d7aab6d0b4}, !- Independent Variable List Name
  DivisorOnly,                            !- Normalization Method
  0.5,                                    !- Normalization Divisor
  0,                                      !- Minimum Output {BasedOnField A5}
  10,                                     !- Maximum Output {BasedOnField A5}
  Dimensionless,                          !- Output Unit Type
  ,                                       !- External File Name
  ,                                       !- External File Column Number
  ,                                       !- External File Starting Row Number
  0.5,                                    !- Output Value 1 {BasedOnField A5}
  0.5;                                    !- Output Value 2 {BasedOnField A5}

OS:ModelObjectList,
  {3a22c9f0-28ba-40d4-b07e-e5d7aab6d0b4}, !- Handle
  Table Lookup 1 Independent Variable List 10, !- Name
  {85cb5e06-62ff-47b0-a007-5ba8ec55a443}; !- Model Object 1

OS:Table:Lookup,
  {e93fe01a-7653-4f10-9a12-e77f2a8970f7}, !- Handle
  sys_3|mixed|shr>none|sc>dx|sh>c-e|ssf>cv|zh>b-hw|zc>none|srf>none| 1 ERV_LatCoolEff 1, !- Name
  {405ac6ba-0095-4aa2-9424-438bbf4f866f}, !- Independent Variable List Name
  DivisorOnly,                            !- Normalization Method
  0.5,                                    !- Normalization Divisor
  0,                                      !- Minimum Output {BasedOnField A5}
  10,                                     !- Maximum Output {BasedOnField A5}
  Dimensionless,                          !- Output Unit Type
  ,                                       !- External File Name
  ,                                       !- External File Column Number
  ,                                       !- External File Starting Row Number
  0.5,                                    !- Output Value 1 {BasedOnField A5}
  0.5;                                    !- Output Value 2 {BasedOnField A5}

OS:ModelObjectList,
  {405ac6ba-0095-4aa2-9424-438bbf4f866f}, !- Handle
  Table Lookup 1 Independent Variable List 11, !- Name
  {9362898d-1102-48a4-9757-31fb3d13e570}; !- Model Object 1

OS:Table:Lookup,
  {6fb8ab2a-59d9-4ea8-92a0-8eaac01ea226}, !- Handle
  sys_3|mixed|shr>none|sc>dx|sh>c-e|ssf>cv|zh>b-hw|zc>none|srf>none| ERV_SensHeatEff 1, !- Name
  {a400cd0e-d430-485e-b1be-ddfcb12ff74c}, !- Independent Variable List Name
  DivisorOnly,                            !- Normalization Method
  0.5,                                    !- Normalization Divisor
  0,                                      !- Minimum Output {BasedOnField A5}
  10,                                     !- Maximum Output {BasedOnField A5}
  Dimensionless,                          !- Output Unit Type
  ,                                       !- External File Name
  ,                                       !- External File Column Number
  ,                                       !- External File Starting Row Number
  0.5,                                    !- Output Value 1 {BasedOnField A5}
  0.5;                                    !- Output Value 2 {BasedOnField A5}

OS:ModelObjectList,
  {a400cd0e-d430-485e-b1be-ddfcb12ff74c}, !- Handle
  Table Lookup 1 Independent Variable List 12, !- Name
  {2b4d637a-d0c2-41e5-ba80-b4f590707abf}; !- Model Object 1

OS:Table:Lookup,
  {43fac430-25cd-4733-bc0d-10902771f5fe}, !- Handle
  sys_3|mixed|shr>none|sc>dx|sh>c-e|ssf>cv|zh>b-hw|zc>none|srf>none| ERV_LatHeatEff 1, !- Name
  {29a30f7d-30a5-4b76-a1b9-a5299310bdb2}, !- Independent Variable List Name
  DivisorOnly,                            !- Normalization Method
  0.5,                                    !- Normalization Divisor
  0,                                      !- Minimum Output {BasedOnField A5}
  10,                                     !- Maximum Output {BasedOnField A5}
  Dimensionless,                          !- Output Unit Type
  ,                                       !- External File Name
  ,                                       !- External File Column Number
  ,                                       !- External File Starting Row Number
  0.5,                                    !- Output Value 1 {BasedOnField A5}
  0.5;                                    !- Output Value 2 {BasedOnField A5}

OS:ModelObjectList,
  {29a30f7d-30a5-4b76-a1b9-a5299310bdb2}, !- Handle
  Table Lookup 1 Independent Variable List, !- Name
  {bef8514e-0b11-4353-b97e-31417c49f242}; !- Model Object 1

OS:Table:Lookup,
  {cd6828b9-64be-4198-802e-bd8ebef9da64}, !- Handle
  sys_3|mixed|shr>none|sc>dx|sh>c-e|ssf>cv|zh>b-hw|zc>none|srf>none| ERV_SensCoolEff 1, !- Name
  {e77e7f25-d739-4f4d-85b5-e63f8192a7a4}, !- Independent Variable List Name
  DivisorOnly,                            !- Normalization Method
  0.5,                                    !- Normalization Divisor
  0,                                      !- Minimum Output {BasedOnField A5}
  10,                                     !- Maximum Output {BasedOnField A5}
  Dimensionless,                          !- Output Unit Type
  ,                                       !- External File Name
  ,                                       !- External File Column Number
  ,                                       !- External File Starting Row Number
  0.5,                                    !- Output Value 1 {BasedOnField A5}
  0.5;                                    !- Output Value 2 {BasedOnField A5}

OS:ModelObjectList,
  {e77e7f25-d739-4f4d-85b5-e63f8192a7a4}, !- Handle
  Table Lookup 1 Independent Variable List 13, !- Name
  {62fe3ea0-a967-4f17-a84f-000d1edb447d}; !- Model Object 1

OS:Table:Lookup,
  {682df544-383e-41dc-9384-2689a8e556bd}, !- Handle
  sys_3|mixed|shr>none|sc>dx|sh>c-e|ssf>cv|zh>b-hw|zc>none|srf>none| ERV_LatCoolEff 1, !- Name
  {ee7998a0-510c-4c78-9515-997a694c1dfc}, !- Independent Variable List Name
  DivisorOnly,                            !- Normalization Method
  0.5,                                    !- Normalization Divisor
  0,                                      !- Minimum Output {BasedOnField A5}
  10,                                     !- Maximum Output {BasedOnField A5}
  Dimensionless,                          !- Output Unit Type
  ,                                       !- External File Name
  ,                                       !- External File Column Number
  ,                                       !- External File Starting Row Number
  0.5,                                    !- Output Value 1 {BasedOnField A5}
  0.5;                                    !- Output Value 2 {BasedOnField A5}

OS:ModelObjectList,
  {ee7998a0-510c-4c78-9515-997a694c1dfc}, !- Handle
  Table Lookup 1 Independent Variable List 14, !- Name
  {7019fb68-de46-4cda-b58c-c59fadf3764e}; !- Model Object 1

