
OS:Version,
  {0f09e137-7f0c-4f16-9e6c-7d7c6b07fa47}, !- Handle
  3.9.0;                                  !- Version Identifier

OS:ScheduleTypeLimits,
  {7742e377-7f88-4677-9a87-df0fc918a067}, !- Handle
  Always On Discrete Limits,              !- Name
  0,                                      !- Lower Limit Value
  1,                                      !- Upper Limit Value
  Discrete,                               !- Numeric Type
  Availability;                           !- Unit Type

OS:Site,
  {c57bbf3e-5555-4e8f-a064-f03eb5a0e42f}, !- Handle
  Yellowknife AP_NT_CAN,                  !- Name
  62.46,                                  !- Latitude {deg}
  -114.44,                                !- Longitude {deg}
  -7,                                     !- Time Zone {hr}
  205.7,                                  !- Elevation {m}
  City;                                   !- Terrain

OS:SimulationControl,
  {8319685c-4a24-4d40-bf6f-d94387dacb21}, !- Handle
  Yes,                                    !- Do Zone Sizing Calculation
  Yes,                                    !- Do System Sizing Calculation
  Yes,                                    !- Do Plant Sizing Calculation
  No,                                     !- Run Simulation for Sizing Periods
  Yes,                                    !- Run Simulation for Weather File Run Periods
  0.04,                                   !- Loads Convergence Tolerance Value {W}
  0.2,                                    !- Temperature Convergence Tolerance Value {deltaC}
  FullInteriorAndExterior,                !- Solar Distribution
  25,                                     !- Maximum Number of Warmup Days
  6,                                      !- Minimum Number of Warmup Days
  No,                                     !- Do HVAC Sizing Simulation for Sizing Periods
  1;                                      !- Maximum Number of HVAC Sizing Simulation Passes

OS:Surface,
  {aeb5cd29-a61e-4f1d-a376-0e8c63c45f3b}, !- Handle
  Room_2_Flr_6_Ceiling,                   !- Name
  RoofCeiling,                            !- Surface Type
  ,                                       !- Construction Name
  {735c6fa8-525c-45a3-82b3-b38ec3245a8f}, !- Space Name
  Outdoors,                               !- Outside Boundary Condition
  ,                                       !- Outside Boundary Condition Object
  SunExposed,                             !- Sun Exposure
  WindExposed,                            !- Wind Exposure
  ,                                       !- View Factor to Ground
  ,                                       !- Number of Vertices
  4.572, 14.326, 19.2,                    !- X,Y,Z Vertex 1 {m}
  4.572, 22.86, 19.2,                     !- X,Y,Z Vertex 2 {m}
  0, 22.86, 19.2,                         !- X,Y,Z Vertex 3 {m}
  0, 14.326, 19.2;                        !- X,Y,Z Vertex 4 {m}

OS:Connection,
  {781cba12-e6df-4891-9f19-d4162ef2e789}, !- Handle
  ,                                       !- Source Object
  11,                                     !- Outlet Port
  ,                                       !- Target Object
  2;                                      !- Inlet Port

OS:Space,
  {735c6fa8-525c-45a3-82b3-b38ec3245a8f}, !- Handle
  Room_2_Flr_6,                           !- Name
  {968adab2-f5e7-46f2-8024-73181e80f0e2}, !- Space Type Name
  ,                                       !- Default Construction Set Name
  ,                                       !- Default Schedule Set Name
  -0,                                     !- Direction of Relative North {deg}
  0,                                      !- X Origin {m}
  0,                                      !- Y Origin {m}
  0,                                      !- Z Origin {m}
  {f4639d5b-3224-4500-bf20-cb7454712ad8}, !- Building Story Name
  {f106e9a8-861c-4e78-9ff5-74f49b73d343}, !- Thermal Zone Name
  Yes,                                    !- Part of Total Floor Area
  ,                                       !- Design Specification Outdoor Air Object Name
  ,                                       !- Building Unit Name
  Autocalculate;                          !- Volume {m3}

OS:Connection,
  {4c0e5a9e-286b-489f-b267-6f34abc63eb3}, !- Handle
  ,                                       !- Source Object
  11,                                     !- Outlet Port
  ,                                       !- Target Object
  2;                                      !- Inlet Port

OS:Space,
  {1c9aeaea-a105-4381-890b-4d9f9ad931ee}, !- Handle
  Corridor_Flr_3,                         !- Name
  {f2e0f4c1-f4d6-4894-ad13-b978fa8be07e}, !- Space Type Name
  ,                                       !- Default Construction Set Name
  ,                                       !- Default Schedule Set Name
  -0,                                     !- Direction of Relative North {deg}
  0,                                      !- X Origin {m}
  0,                                      !- Y Origin {m}
  0,                                      !- Z Origin {m}
  {2053599b-ba44-402f-8dd3-3ba65307fe07}, !- Building Story Name
  {a2c8f92b-0e61-41dd-8243-a1de4649fcab}, !- Thermal Zone Name
  Yes,                                    !- Part of Total Floor Area
  ,                                       !- Design Specification Outdoor Air Object Name
  ,                                       !- Building Unit Name
  Autocalculate;                          !- Volume {m3}

OS:ConvergenceLimits,
  {70f72b8f-0f12-4d6c-9b47-243771b0e570}, !- Handle
  1,                                      !- Minimum System Timestep {minutes}
  20;                                     !- Maximum HVAC Iterations

OS:Surface,
  {c6949061-d672-44fe-ae38-b59964db2117}, !- Handle
  Banquet_Flr_6_Wall_North,               !- Name
  Wall,                                   !- Surface Type
  ,                                       !- Construction Name
  {ba3048dd-f7da-474c-bbec-d2605f9e6cc4}, !- Space Name
  Outdoors,                               !- Outside Boundary Condition
  ,                                       !- Outside Boundary Condition Object
  SunExposed,                             !- Sun Exposure
  WindExposed,                            !- Wind Exposure
  ,                                       !- View Factor to Ground
  ,                                       !- Number of Vertices
  42.367, 22.86, 19.2,                    !- X,Y,Z Vertex 1 {m}
  42.367, 22.86, 16.152,                  !- X,Y,Z Vertex 2 {m}
  10.363, 22.86, 16.152,                  !- X,Y,Z Vertex 3 {m}
  10.363, 22.86, 19.2;                    !- X,Y,Z Vertex 4 {m}

OS:Connection,
  {5070de4c-886e-4c17-b6b0-35b5d628bfb8}, !- Handle
  ,                                       !- Source Object
  11,                                     !- Outlet Port
  ,                                       !- Target Object
  2;                                      !- Inlet Port

OS:Space,
  {ba3048dd-f7da-474c-bbec-d2605f9e6cc4}, !- Handle
  Banquet_Flr_6,                          !- Name
  {1bb35fe6-816a-40d1-8884-93e01d7df849}, !- Space Type Name
  ,                                       !- Default Construction Set Name
  ,                                       !- Default Schedule Set Name
  -0,                                     !- Direction of Relative North {deg}
  0,                                      !- X Origin {m}
  0,                                      !- Y Origin {m}
  0,                                      !- Z Origin {m}
  {f4639d5b-3224-4500-bf20-cb7454712ad8}, !- Building Story Name
  {83806b6d-a270-4c94-af2a-0323faa090a1}, !- Thermal Zone Name
  Yes,                                    !- Part of Total Floor Area
  ,                                       !- Design Specification Outdoor Air Object Name
  ,                                       !- Building Unit Name
  Autocalculate;                          !- Volume {m3}

OS:Connection,
  {65d7cf7d-d932-493f-89db-86a3c9021e51}, !- Handle
  ,                                       !- Source Object
  11,                                     !- Outlet Port
  ,                                       !- Target Object
  2;                                      !- Inlet Port

OS:Space,
  {b4cff31b-2b2e-470e-b7c8-55b05f6374f6}, !- Handle
  Laundry_Flr_1,                          !- Name
  {c8a48527-7ec3-43e5-95de-2d5a58909a79}, !- Space Type Name
  ,                                       !- Default Construction Set Name
  ,                                       !- Default Schedule Set Name
  -0,                                     !- Direction of Relative North {deg}
  0,                                      !- X Origin {m}
  0,                                      !- Y Origin {m}
  0,                                      !- Z Origin {m}
  {0e4d49ab-bfaf-4502-af98-19b90ca05d17}, !- Building Story Name
  {f93f5075-265f-41be-a04b-b5bbd6b3af53}, !- Thermal Zone Name
  Yes,                                    !- Part of Total Floor Area
  ,                                       !- Design Specification Outdoor Air Object Name
  ,                                       !- Building Unit Name
  Autocalculate;                          !- Volume {m3}

OS:Surface,
  {7a866f98-032d-41ac-a05d-868768c9a2ff}, !- Handle
  Lobby_Flr_1_Wall_2_West,                !- Name
  Wall,                                   !- Surface Type
  ,                                       !- Construction Name
  {5f877673-6afe-4f1f-960f-7e78d281ff4b}, !- Space Name
  Surface,                                !- Outside Boundary Condition
  {3d0a89d0-0a71-4089-9adc-9c61c7036422}, !- Outside Boundary Condition Object
  NoSun,                                  !- Sun Exposure
  NoWind,                                 !- Wind Exposure
  ,                                       !- View Factor to Ground
  ,                                       !- Number of Vertices
  11.582, 5.791, 3.9624,                  !- X,Y,Z Vertex 1 {m}
  11.582, 5.791, 0,                       !- X,Y,Z Vertex 2 {m}
  11.582, 0, 0,                           !- X,Y,Z Vertex 3 {m}
  11.582, 0, 3.9624;                      !- X,Y,Z Vertex 4 {m}

OS:Connection,
  {8d17990b-3f1e-46be-9dbb-a4a09f7ccc3f}, !- Handle
  ,                                       !- Source Object
  11,                                     !- Outlet Port
  ,                                       !- Target Object
  2;                                      !- Inlet Port

OS:Space,
  {5f877673-6afe-4f1f-960f-7e78d281ff4b}, !- Handle
  Lobby_Flr_1,                            !- Name
  {3cd62246-bb6e-4be4-84f7-f1e1e4db9111}, !- Space Type Name
  ,                                       !- Default Construction Set Name
  ,                                       !- Default Schedule Set Name
  -0,                                     !- Direction of Relative North {deg}
  0,                                      !- X Origin {m}
  0,                                      !- Y Origin {m}
  0,                                      !- Z Origin {m}
  {0e4d49ab-bfaf-4502-af98-19b90ca05d17}, !- Building Story Name
  {dbcab279-5728-430d-b6bb-6d34f9e9e677}, !- Thermal Zone Name
  Yes,                                    !- Part of Total Floor Area
  ,                                       !- Design Specification Outdoor Air Object Name
  ,                                       !- Building Unit Name
  Autocalculate;                          !- Volume {m3}

OS:Connection,
  {f7376c8c-aa24-405d-a5e4-3c56fed1b56e}, !- Handle
  ,                                       !- Source Object
  11,                                     !- Outlet Port
  ,                                       !- Target Object
  2;                                      !- Inlet Port

OS:Space,
  {53c7fa8b-d0a9-4d59-9f72-ab5b6de28e90}, !- Handle
  Kitchen_Flr_6,                          !- Name
  {3951b0f5-be1f-4b98-9198-a6d39a405825}, !- Space Type Name
  ,                                       !- Default Construction Set Name
  ,                                       !- Default Schedule Set Name
  -0,                                     !- Direction of Relative North {deg}
  0,                                      !- X Origin {m}
  0,                                      !- Y Origin {m}
  0,                                      !- Z Origin {m}
  {f4639d5b-3224-4500-bf20-cb7454712ad8}, !- Building Story Name
  {f02a17af-7125-415e-8405-a5e84673a914}, !- Thermal Zone Name
  Yes,                                    !- Part of Total Floor Area
  ,                                       !- Design Specification Outdoor Air Object Name
  ,                                       !- Building Unit Name
  Autocalculate;                          !- Volume {m3}

OS:Surface,
  {3d0a89d0-0a71-4089-9adc-9c61c7036422}, !- Handle
  Retail_1_Flr_1_Wall_East,               !- Name
  Wall,                                   !- Surface Type
  ,                                       !- Construction Name
  {1a878509-17bb-4788-a93c-b231afdbd395}, !- Space Name
  Surface,                                !- Outside Boundary Condition
  {7a866f98-032d-41ac-a05d-868768c9a2ff}, !- Outside Boundary Condition Object
  NoSun,                                  !- Sun Exposure
  NoWind,                                 !- Wind Exposure
  ,                                       !- View Factor to Ground
  ,                                       !- Number of Vertices
  11.582, 0, 3.9624,                      !- X,Y,Z Vertex 1 {m}
  11.582, 0, 0,                           !- X,Y,Z Vertex 2 {m}
  11.582, 5.791, 0,                       !- X,Y,Z Vertex 3 {m}
  11.582, 5.791, 3.9624;                  !- X,Y,Z Vertex 4 {m}

OS:Connection,
  {eb899891-4838-40c2-89a9-86d7fdbfc42f}, !- Handle
  ,                                       !- Source Object
  11,                                     !- Outlet Port
  ,                                       !- Target Object
  2;                                      !- Inlet Port

OS:Space,
  {1a878509-17bb-4788-a93c-b231afdbd395}, !- Handle
  Retail_1_Flr_1,                         !- Name
  {1dd83e0f-7c2e-49e8-9a77-2b3b3f609d02}, !- Space Type Name
  ,                                       !- Default Construction Set Name
  ,                                       !- Default Schedule Set Name
  -0,                                     !- Direction of Relative North {deg}
  0,                                      !- X Origin {m}
  0,                                      !- Y Origin {m}
  0,                                      !- Z Origin {m}
  {0e4d49ab-bfaf-4502-af98-19b90ca05d17}, !- Building Story Name
  {1e01af59-c855-4924-b4d6-a5e05ba52b86}, !- Thermal Zone Name
  Yes,                                    !- Part of Total Floor Area
  ,                                       !- Design Specification Outdoor Air Object Name
  ,                                       !- Building Unit Name
  Autocalculate;                          !- Volume {m3}

OS:Building,
  {bb5b588d-ed54-4560-ae15-dfaff42d1cbb}, !- Handle
  LargeHotel,                             !- Name
  ,                                       !- Building Sector Type
  0,                                      !- North Axis {deg}
  ,                                       !- Nominal Floor to Floor Height {m}
  ,                                       !- Space Type Name
  {e73af8bc-46dc-4ca8-927e-af4c00a15d1f}, !- Default Construction Set Name
  ,                                       !- Default Schedule Set Name
  7,                                      !- Standards Number of Stories
  6,                                      !- Standards Number of Above Ground Stories
  BTAP1980TO2010,                         !- Standards Template
  LargeHotel,                             !- Standards Building Type
  ,                                       !- Standards Number of Living Units
  ,                                       !- Relocatable
  ;                                       !- Nominal Floor to Ceiling Height {m}

OS:Connection,
  {3090efff-d176-4979-b979-fc01b07b5836}, !- Handle
  ,                                       !- Source Object
  11,                                     !- Outlet Port
  ,                                       !- Target Object
  2;                                      !- Inlet Port

OS:Space,
  {60361c47-6132-479f-892b-2ef2551c2988}, !- Handle
  Room_1_Flr_3,                           !- Name
  {968adab2-f5e7-46f2-8024-73181e80f0e2}, !- Space Type Name
  ,                                       !- Default Construction Set Name
  ,                                       !- Default Schedule Set Name
  -0,                                     !- Direction of Relative North {deg}
  0,                                      !- X Origin {m}
  0,                                      !- Y Origin {m}
  0,                                      !- Z Origin {m}
  {2053599b-ba44-402f-8dd3-3ba65307fe07}, !- Building Story Name
  {fc11c124-61fe-425a-bd2f-37c6fd1c5e77}, !- Thermal Zone Name
  Yes,                                    !- Part of Total Floor Area
  ,                                       !- Design Specification Outdoor Air Object Name
  ,                                       !- Building Unit Name
  Autocalculate;                          !- Volume {m3}

OS:Surface,
  {3478624a-5157-4245-b315-fbf2db6bd787}, !- Handle
  Basement_Ceiling_1,                     !- Name
  RoofCeiling,                            !- Surface Type
  ,                                       !- Construction Name
  {e8215437-4d6e-4194-81a3-8e59d7aab856}, !- Space Name
  Surface,                                !- Outside Boundary Condition
  {446fb5be-4dcf-466e-9cf9-aa3d479afdde}, !- Outside Boundary Condition Object
  NoSun,                                  !- Sun Exposure
  NoWind,                                 !- Wind Exposure
  ,                                       !- View Factor to Ground
  ,                                       !- Number of Vertices
  11.582, 0, 0,                           !- X,Y,Z Vertex 1 {m}
  11.582, 5.791, 0,                       !- X,Y,Z Vertex 2 {m}
  0, 5.791, 0,                            !- X,Y,Z Vertex 3 {m}
  0, 0, 0;                                !- X,Y,Z Vertex 4 {m}

OS:Connection,
  {3aa6f83c-5a18-431b-b1f5-4478b9f83a74}, !- Handle
  ,                                       !- Source Object
  11,                                     !- Outlet Port
  ,                                       !- Target Object
  2;                                      !- Inlet Port

OS:Space,
  {e8215437-4d6e-4194-81a3-8e59d7aab856}, !- Handle
  Basement,                               !- Name
  {1db7ae02-984b-4f94-828f-b1dc879725a0}, !- Space Type Name
  ,                                       !- Default Construction Set Name
  ,                                       !- Default Schedule Set Name
  -0,                                     !- Direction of Relative North {deg}
  0,                                      !- X Origin {m}
  0,                                      !- Y Origin {m}
  0,                                      !- Z Origin {m}
  {5e09a01c-d73b-462b-a0e7-6329f805a99c}, !- Building Story Name
  {dd40d9e5-9b0b-48d2-8191-885b4a8c1a19}, !- Thermal Zone Name
  Yes,                                    !- Part of Total Floor Area
  ,                                       !- Design Specification Outdoor Air Object Name
  ,                                       !- Building Unit Name
  Autocalculate;                          !- Volume {m3}

OS:Surface,
  {019125a0-77bb-419d-a7f6-68140c061ebb}, !- Handle
  Corridor_Flr_6_Wall_2_West,             !- Name
  Wall,                                   !- Surface Type
  ,                                       !- Construction Name
  {727f620c-8075-4586-8703-48bde7f60f5c}, !- Space Name
  Surface,                                !- Outside Boundary Condition
  {82d225ea-f9f0-4298-b589-b6cb5b1f8282}, !- Outside Boundary Condition Object
  NoSun,                                  !- Sun Exposure
  NoWind,                                 !- Wind Exposure
  ,                                       !- View Factor to Ground
  ,                                       !- Number of Vertices
  4.572, 14.326, 19.2,                    !- X,Y,Z Vertex 1 {m}
  4.572, 14.326, 16.152,                  !- X,Y,Z Vertex 2 {m}
  4.572, 9.449, 16.152,                   !- X,Y,Z Vertex 3 {m}
  4.572, 9.449, 19.2;                     !- X,Y,Z Vertex 4 {m}

OS:Connection,
  {196bd115-1013-46af-a102-7952336117b6}, !- Handle
  ,                                       !- Source Object
  11,                                     !- Outlet Port
  ,                                       !- Target Object
  2;                                      !- Inlet Port

OS:Space,
  {727f620c-8075-4586-8703-48bde7f60f5c}, !- Handle
  Corridor_Flr_6,                         !- Name
  {f2e0f4c1-f4d6-4894-ad13-b978fa8be07e}, !- Space Type Name
  ,                                       !- Default Construction Set Name
  ,                                       !- Default Schedule Set Name
  -0,                                     !- Direction of Relative North {deg}
  0,                                      !- X Origin {m}
  0,                                      !- Y Origin {m}
  0,                                      !- Z Origin {m}
  {f4639d5b-3224-4500-bf20-cb7454712ad8}, !- Building Story Name
  {5e17aaaa-03e1-47aa-9006-777f02087501}, !- Thermal Zone Name
  Yes,                                    !- Part of Total Floor Area
  ,                                       !- Design Specification Outdoor Air Object Name
  ,                                       !- Building Unit Name
  Autocalculate;                          !- Volume {m3}

OS:Surface,
  {228be3ab-60a2-4075-a255-0ca7e031bd61}, !- Handle
  Room_6_Flr_3_Wall_North,                !- Name
  Wall,                                   !- Surface Type
  ,                                       !- Construction Name
  {43edd94b-1dd2-4c9a-87d9-1a557847cf2c}, !- Space Name
  Outdoors,                               !- Outside Boundary Condition
  ,                                       !- Outside Boundary Condition Object
  SunExposed,                             !- Sun Exposure
  WindExposed,                            !- Wind Exposure
  ,                                       !- View Factor to Ground
  ,                                       !- Number of Vertices
  86.563, 22.86, 10.056,                  !- X,Y,Z Vertex 1 {m}
  86.563, 22.86, 7.008,                   !- X,Y,Z Vertex 2 {m}
  81.991, 22.86, 7.008,                   !- X,Y,Z Vertex 3 {m}
  81.991, 22.86, 10.056;                  !- X,Y,Z Vertex 4 {m}

OS:Connection,
  {cdf9e9c2-4195-48df-8a75-8d35d654843b}, !- Handle
  ,                                       !- Source Object
  11,                                     !- Outlet Port
  ,                                       !- Target Object
  2;                                      !- Inlet Port

OS:Space,
  {43edd94b-1dd2-4c9a-87d9-1a557847cf2c}, !- Handle
  Room_6_Flr_3,                           !- Name
  {968adab2-f5e7-46f2-8024-73181e80f0e2}, !- Space Type Name
  ,                                       !- Default Construction Set Name
  ,                                       !- Default Schedule Set Name
  -0,                                     !- Direction of Relative North {deg}
  0,                                      !- X Origin {m}
  0,                                      !- Y Origin {m}
  0,                                      !- Z Origin {m}
  {2053599b-ba44-402f-8dd3-3ba65307fe07}, !- Building Story Name
  {aa46969e-8b75-4c54-81dd-1516136620f7}, !- Thermal Zone Name
  Yes,                                    !- Part of Total Floor Area
  ,                                       !- Design Specification Outdoor Air Object Name
  ,                                       !- Building Unit Name
  Autocalculate;                          !- Volume {m3}

OS:Surface,
  {b0779a3c-3a11-4697-babc-7a5313fa15eb}, !- Handle
  Lobby_Flr_1_Wall_1_North,               !- Name
  Wall,                                   !- Surface Type
  ,                                       !- Construction Name
  {5f877673-6afe-4f1f-960f-7e78d281ff4b}, !- Space Name
  Outdoors,                               !- Outside Boundary Condition
  ,                                       !- Outside Boundary Condition Object
  SunExposed,                             !- Sun Exposure
  WindExposed,                            !- Wind Exposure
  ,                                       !- View Factor to Ground
  ,                                       !- Number of Vertices
  53.95, 22.86, 3.9624,                   !- X,Y,Z Vertex 1 {m}
  53.95, 22.86, 0,                        !- X,Y,Z Vertex 2 {m}
  0, 22.86, 0,                            !- X,Y,Z Vertex 3 {m}
  0, 22.86, 3.9624;                       !- X,Y,Z Vertex 4 {m}

OS:Surface,
  {1270c231-dd8a-42a9-a14e-9420d04b6fbe}, !- Handle
  Basement_Ceiling_5,                     !- Name
  RoofCeiling,                            !- Surface Type
  ,                                       !- Construction Name
  {e8215437-4d6e-4194-81a3-8e59d7aab856}, !- Space Name
  Surface,                                !- Outside Boundary Condition
  {bf3482d2-209c-482d-af23-dc13969f1570}, !- Outside Boundary Condition Object
  NoSun,                                  !- Sun Exposure
  NoWind,                                 !- Wind Exposure
  ,                                       !- View Factor to Ground
  ,                                       !- Number of Vertices
  86.563, 5.791, 0,                       !- X,Y,Z Vertex 1 {m}
  86.563, 22.86, 0,                       !- X,Y,Z Vertex 2 {m}
  81.991, 22.86, 0,                       !- X,Y,Z Vertex 3 {m}
  81.991, 5.791, 0;                       !- X,Y,Z Vertex 4 {m}

OS:Connection,
  {e27ebe38-324e-4ef0-b95d-ba89bc1c883c}, !- Handle
  ,                                       !- Source Object
  11,                                     !- Outlet Port
  ,                                       !- Target Object
  2;                                      !- Inlet Port

OS:Space,
  {f220e1f3-aa91-4513-9f9a-e8dd4a412b4d}, !- Handle
  Room_5_Flr_3,                           !- Name
  {968adab2-f5e7-46f2-8024-73181e80f0e2}, !- Space Type Name
  ,                                       !- Default Construction Set Name
  ,                                       !- Default Schedule Set Name
  -0,                                     !- Direction of Relative North {deg}
  0,                                      !- X Origin {m}
  0,                                      !- Y Origin {m}
  0,                                      !- Z Origin {m}
  {2053599b-ba44-402f-8dd3-3ba65307fe07}, !- Building Story Name
  {df6f7ab6-8158-4e14-8af7-319c6dcc2095}, !- Thermal Zone Name
  Yes,                                    !- Part of Total Floor Area
  ,                                       !- Design Specification Outdoor Air Object Name
  ,                                       !- Building Unit Name
  Autocalculate;                          !- Volume {m3}

OS:Surface,
  {9fadde92-d4f7-4525-8480-9afe67881f7d}, !- Handle
  Corridor_Flr_6_Wall_3_East,             !- Name
  Wall,                                   !- Surface Type
  ,                                       !- Construction Name
  {727f620c-8075-4586-8703-48bde7f60f5c}, !- Space Name
  Surface,                                !- Outside Boundary Condition
  {0b1a5647-b47b-4ce4-9155-63042cc6cea1}, !- Outside Boundary Condition Object
  NoSun,                                  !- Sun Exposure
  NoWind,                                 !- Wind Exposure
  ,                                       !- View Factor to Ground
  ,                                       !- Number of Vertices
  81.991, 5.791, 19.2,                    !- X,Y,Z Vertex 1 {m}
  81.991, 5.791, 16.152,                  !- X,Y,Z Vertex 2 {m}
  81.991, 12.497, 16.152,                 !- X,Y,Z Vertex 3 {m}
  81.991, 12.497, 19.2;                   !- X,Y,Z Vertex 4 {m}

OS:Connection,
  {2b846342-4cb7-49cb-9ade-b452b9a1a898}, !- Handle
  ,                                       !- Source Object
  11,                                     !- Outlet Port
  ,                                       !- Target Object
  2;                                      !- Inlet Port

OS:Space,
  {72c99aa5-adda-4d43-8716-a054b8639a94}, !- Handle
  Room_4_1_Flr_3,                         !- Name
  {968adab2-f5e7-46f2-8024-73181e80f0e2}, !- Space Type Name
  ,                                       !- Default Construction Set Name
  ,                                       !- Default Schedule Set Name
  -0,                                     !- Direction of Relative North {deg}
  0,                                      !- X Origin {m}
  0,                                      !- Y Origin {m}
  0,                                      !- Z Origin {m}
  {2053599b-ba44-402f-8dd3-3ba65307fe07}, !- Building Story Name
  {5e83b235-ed06-44fd-8232-2899c4249002}, !- Thermal Zone Name
  Yes,                                    !- Part of Total Floor Area
  ,                                       !- Design Specification Outdoor Air Object Name
  ,                                       !- Building Unit Name
  Autocalculate;                          !- Volume {m3}

OS:Surface,
  {8cfcc863-8692-441a-98ac-1f13f4ce09d5}, !- Handle
  Room_3_1_Flr_6_Wall_West,               !- Name
  Wall,                                   !- Surface Type
  ,                                       !- Construction Name
  {33e71202-8fbd-4e14-b534-3eb0a82a5cec}, !- Space Name
  Surface,                                !- Outside Boundary Condition
  {b07c7525-68e4-441d-9fd3-3a523914d0a1}, !- Outside Boundary Condition Object
  NoSun,                                  !- Sun Exposure
  NoWind,                                 !- Wind Exposure
  ,                                       !- View Factor to Ground
  ,                                       !- Number of Vertices
  4.572, 9.449, 19.2,                     !- X,Y,Z Vertex 1 {m}
  4.572, 9.449, 16.152,                   !- X,Y,Z Vertex 2 {m}
  4.572, 5.791, 16.152,                   !- X,Y,Z Vertex 3 {m}
  4.572, 5.791, 19.2;                     !- X,Y,Z Vertex 4 {m}

OS:Connection,
  {35f1f8fb-47de-4509-a6f8-9631169482b2}, !- Handle
  ,                                       !- Source Object
  11,                                     !- Outlet Port
  ,                                       !- Target Object
  2;                                      !- Inlet Port

OS:Space,
  {33e71202-8fbd-4e14-b534-3eb0a82a5cec}, !- Handle
  Room_3_1_Flr_6,                         !- Name
  {968adab2-f5e7-46f2-8024-73181e80f0e2}, !- Space Type Name
  ,                                       !- Default Construction Set Name
  ,                                       !- Default Schedule Set Name
  -0,                                     !- Direction of Relative North {deg}
  0,                                      !- X Origin {m}
  0,                                      !- Y Origin {m}
  0,                                      !- Z Origin {m}
  {f4639d5b-3224-4500-bf20-cb7454712ad8}, !- Building Story Name
  {fc630e50-20d0-4bc4-95fa-663dc899e1d8}, !- Thermal Zone Name
  Yes,                                    !- Part of Total Floor Area
  ,                                       !- Design Specification Outdoor Air Object Name
  ,                                       !- Building Unit Name
  Autocalculate;                          !- Volume {m3}

OS:Surface,
  {13861e28-81d3-478c-8e2b-4003e6993767}, !- Handle
  Dining_Flr_6_Floor,                     !- Name
  Floor,                                  !- Surface Type
  {180833a2-f0ff-4583-a9a5-9083ec060728}, !- Construction Name
  {cb2c0215-3476-427c-ac46-083a99e88a0b}, !- Space Name
  Adiabatic,                              !- Outside Boundary Condition
  ,                                       !- Outside Boundary Condition Object
  NoSun,                                  !- Sun Exposure
  NoWind,                                 !- Wind Exposure
  ,                                       !- View Factor to Ground
  ,                                       !- Number of Vertices
  79.553, 22.86, 16.152,                  !- X,Y,Z Vertex 1 {m}
  79.553, 12.497, 16.152,                 !- X,Y,Z Vertex 2 {m}
  47.549, 12.497, 16.152,                 !- X,Y,Z Vertex 3 {m}
  47.549, 22.86, 16.152;                  !- X,Y,Z Vertex 4 {m}

OS:Connection,
  {0590fd63-4691-4559-9b38-58e973f91ed5}, !- Handle
  ,                                       !- Source Object
  11,                                     !- Outlet Port
  ,                                       !- Target Object
  2;                                      !- Inlet Port

OS:Space,
  {cb2c0215-3476-427c-ac46-083a99e88a0b}, !- Handle
  Dining_Flr_6,                           !- Name
  {1bb35fe6-816a-40d1-8884-93e01d7df849}, !- Space Type Name
  ,                                       !- Default Construction Set Name
  ,                                       !- Default Schedule Set Name
  -0,                                     !- Direction of Relative North {deg}
  0,                                      !- X Origin {m}
  0,                                      !- Y Origin {m}
  0,                                      !- Z Origin {m}
  {f4639d5b-3224-4500-bf20-cb7454712ad8}, !- Building Story Name
  {81e809d3-3c8f-4b37-9f12-94e6b5a74d80}, !- Thermal Zone Name
  Yes,                                    !- Part of Total Floor Area
  ,                                       !- Design Specification Outdoor Air Object Name
  ,                                       !- Building Unit Name
  Autocalculate;                          !- Volume {m3}

OS:Connection,
  {c2d24356-613e-45d4-82e8-c890f4fe014c}, !- Handle
  ,                                       !- Source Object
  11,                                     !- Outlet Port
  ,                                       !- Target Object
  2;                                      !- Inlet Port

OS:Space,
  {779cf315-dfdf-42f0-a7e8-758783d6bf25}, !- Handle
  Cafe_Flr_1,                             !- Name
  {f40fe49a-654e-4f93-a3ac-038c1dc5a8aa}, !- Space Type Name
  ,                                       !- Default Construction Set Name
  ,                                       !- Default Schedule Set Name
  -0,                                     !- Direction of Relative North {deg}
  0,                                      !- X Origin {m}
  0,                                      !- Y Origin {m}
  0,                                      !- Z Origin {m}
  {0e4d49ab-bfaf-4502-af98-19b90ca05d17}, !- Building Story Name
  {a34547c8-91ed-4bb3-a482-8c659ee92376}, !- Thermal Zone Name
  Yes,                                    !- Part of Total Floor Area
  ,                                       !- Design Specification Outdoor Air Object Name
  ,                                       !- Building Unit Name
  Autocalculate;                          !- Volume {m3}

OS:Surface,
  {c1a54545-58a4-4b92-ba32-c05141dc81ef}, !- Handle
  Room_1_Flr_3_Wall_West,                 !- Name
  Wall,                                   !- Surface Type
  ,                                       !- Construction Name
  {60361c47-6132-479f-892b-2ef2551c2988}, !- Space Name
  Outdoors,                               !- Outside Boundary Condition
  ,                                       !- Outside Boundary Condition Object
  SunExposed,                             !- Sun Exposure
  WindExposed,                            !- Wind Exposure
  ,                                       !- View Factor to Ground
  ,                                       !- Number of Vertices
  0, 14.326, 10.056,                      !- X,Y,Z Vertex 1 {m}
  0, 14.326, 7.008,                       !- X,Y,Z Vertex 2 {m}
  0, 5.791, 7.008,                        !- X,Y,Z Vertex 3 {m}
  0, 5.791, 10.056;                       !- X,Y,Z Vertex 4 {m}

OS:Surface,
  {6be54bcb-ecfa-4ec9-b1f3-aea68b265605}, !- Handle
  Dining_Flr_6_Wall_West,                 !- Name
  Wall,                                   !- Surface Type
  ,                                       !- Construction Name
  {cb2c0215-3476-427c-ac46-083a99e88a0b}, !- Space Name
  Surface,                                !- Outside Boundary Condition
  {74c671c7-75ec-4736-9a0f-42d18b19b908}, !- Outside Boundary Condition Object
  NoSun,                                  !- Sun Exposure
  NoWind,                                 !- Wind Exposure
  ,                                       !- View Factor to Ground
  ,                                       !- Number of Vertices
  47.549, 22.86, 19.2,                    !- X,Y,Z Vertex 1 {m}
  47.549, 22.86, 16.152,                  !- X,Y,Z Vertex 2 {m}
  47.549, 12.497, 16.152,                 !- X,Y,Z Vertex 3 {m}
  47.549, 12.497, 19.2;                   !- X,Y,Z Vertex 4 {m}

OS:Connection,
  {dfbb65e6-42f9-4dd5-bad6-588915186ead}, !- Handle
  ,                                       !- Source Object
  11,                                     !- Outlet Port
  ,                                       !- Target Object
  2;                                      !- Inlet Port

OS:Space,
  {1418486f-1953-4d9f-ae34-08fb8834ea7c}, !- Handle
  Mech_Flr_1,                             !- Name
  {1ae02b8d-3a23-4f70-a8de-cb49017f5855}, !- Space Type Name
  ,                                       !- Default Construction Set Name
  ,                                       !- Default Schedule Set Name
  -0,                                     !- Direction of Relative North {deg}
  0,                                      !- X Origin {m}
  0,                                      !- Y Origin {m}
  0,                                      !- Z Origin {m}
  {0e4d49ab-bfaf-4502-af98-19b90ca05d17}, !- Building Story Name
  {b0526851-a0b9-44bf-8c8d-3d53f37d625a}, !- Thermal Zone Name
  Yes,                                    !- Part of Total Floor Area
  ,                                       !- Design Specification Outdoor Air Object Name
  ,                                       !- Building Unit Name
  Autocalculate;                          !- Volume {m3}

OS:Surface,
  {5e50dc32-a1a5-4680-bf11-6525a8b00aec}, !- Handle
  Retail_2_Flr_1_Ceiling,                 !- Name
  RoofCeiling,                            !- Surface Type
  {180833a2-f0ff-4583-a9a5-9083ec060728}, !- Construction Name
  {54b28b67-906c-4266-8d90-363643b15e57}, !- Space Name
  Adiabatic,                              !- Outside Boundary Condition
  ,                                       !- Outside Boundary Condition Object
  NoSun,                                  !- Sun Exposure
  NoWind,                                 !- Wind Exposure
  ,                                       !- View Factor to Ground
  ,                                       !- Number of Vertices
  11.582, 5.791, 3.9624,                  !- X,Y,Z Vertex 1 {m}
  11.582, 12.497, 3.9624,                 !- X,Y,Z Vertex 2 {m}
  0, 12.497, 3.9624,                      !- X,Y,Z Vertex 3 {m}
  0, 5.791, 3.9624;                       !- X,Y,Z Vertex 4 {m}

OS:Connection,
  {cfc6b852-b849-4dc9-9c52-55fc1d31c1ab}, !- Handle
  ,                                       !- Source Object
  11,                                     !- Outlet Port
  ,                                       !- Target Object
  2;                                      !- Inlet Port

OS:Space,
  {54b28b67-906c-4266-8d90-363643b15e57}, !- Handle
  Retail_2_Flr_1,                         !- Name
  {1dd83e0f-7c2e-49e8-9a77-2b3b3f609d02}, !- Space Type Name
  ,                                       !- Default Construction Set Name
  ,                                       !- Default Schedule Set Name
  -0,                                     !- Direction of Relative North {deg}
  0,                                      !- X Origin {m}
  0,                                      !- Y Origin {m}
  0,                                      !- Z Origin {m}
  {0e4d49ab-bfaf-4502-af98-19b90ca05d17}, !- Building Story Name
  {6fe5b809-51fd-4cf6-8d68-27de4d13cdb9}, !- Thermal Zone Name
  Yes,                                    !- Part of Total Floor Area
  ,                                       !- Design Specification Outdoor Air Object Name
  ,                                       !- Building Unit Name
  Autocalculate;                          !- Volume {m3}

OS:Connection,
  {ef6e8101-6910-4dec-a129-7a47b94969e5}, !- Handle
  ,                                       !- Source Object
  11,                                     !- Outlet Port
  ,                                       !- Target Object
  2;                                      !- Inlet Port

OS:Space,
  {99acb158-fe8d-42de-85ec-b09b0883f326}, !- Handle
  Storage_Flr_1,                          !- Name
  {3552a95b-0ad6-4df7-80c2-15d3951820ac}, !- Space Type Name
  ,                                       !- Default Construction Set Name
  ,                                       !- Default Schedule Set Name
  -0,                                     !- Direction of Relative North {deg}
  0,                                      !- X Origin {m}
  0,                                      !- Y Origin {m}
  0,                                      !- Z Origin {m}
  {0e4d49ab-bfaf-4502-af98-19b90ca05d17}, !- Building Story Name
  {698107a4-24ce-42c1-a11b-749ab475bcf3}, !- Thermal Zone Name
  Yes,                                    !- Part of Total Floor Area
  ,                                       !- Design Specification Outdoor Air Object Name
  ,                                       !- Building Unit Name
  Autocalculate;                          !- Volume {m3}

OS:SubSurface,
  {9f3476bb-a174-4f10-ab3c-f646dd84ddb1}, !- Handle
  Corridor_Flr_6_Wall_2_South_Window,     !- Name
  FixedWindow,                            !- Sub Surface Type
  ,                                       !- Construction Name
  {513de9ea-0051-4257-9cdc-a25e96cfbbcb}, !- Surface Name
  ,                                       !- Outside Boundary Condition Object
  ,                                       !- View Factor to Ground
  ,                                       !- Frame and Divider Name
  1,                                      !- Multiplier
  ,                                       !- Number of Vertices
  66.416, 5.791, 18.484,                  !- X,Y,Z Vertex 1 {m}
  66.416, 5.791, 17.264,                  !- X,Y,Z Vertex 2 {m}
  80.498, 5.791, 17.264,                  !- X,Y,Z Vertex 3 {m}
  80.498, 5.791, 18.484;                  !- X,Y,Z Vertex 4 {m}

OS:Surface,
  {513de9ea-0051-4257-9cdc-a25e96cfbbcb}, !- Handle
  Corridor_Flr_6_Wall_10_South,           !- Name
  Wall,                                   !- Surface Type
  ,                                       !- Construction Name
  {727f620c-8075-4586-8703-48bde7f60f5c}, !- Space Name
  Outdoors,                               !- Outside Boundary Condition
  ,                                       !- Outside Boundary Condition Object
  SunExposed,                             !- Sun Exposure
  WindExposed,                            !- Wind Exposure
  ,                                       !- View Factor to Ground
  ,                                       !- Number of Vertices
  64.922, 5.791, 19.2,                    !- X,Y,Z Vertex 1 {m}
  64.922, 5.791, 16.152,                  !- X,Y,Z Vertex 2 {m}
  81.991, 5.791, 16.152,                  !- X,Y,Z Vertex 3 {m}
  81.991, 5.791, 19.2;                    !- X,Y,Z Vertex 4 {m}

OS:Surface,
  {b07c7525-68e4-441d-9fd3-3a523914d0a1}, !- Handle
  Room_1_Flr_6_Wall_1_East,               !- Name
  Wall,                                   !- Surface Type
  ,                                       !- Construction Name
  {0de59da8-57c0-4247-98db-94f06e2019a8}, !- Space Name
  Surface,                                !- Outside Boundary Condition
  {8cfcc863-8692-441a-98ac-1f13f4ce09d5}, !- Outside Boundary Condition Object
  NoSun,                                  !- Sun Exposure
  NoWind,                                 !- Wind Exposure
  ,                                       !- View Factor to Ground
  ,                                       !- Number of Vertices
  4.572, 5.791, 19.2,                     !- X,Y,Z Vertex 1 {m}
  4.572, 5.791, 16.152,                   !- X,Y,Z Vertex 2 {m}
  4.572, 9.449, 16.152,                   !- X,Y,Z Vertex 3 {m}
  4.572, 9.449, 19.2;                     !- X,Y,Z Vertex 4 {m}

OS:Connection,
  {2f4926bd-bfec-41a6-885b-276ca15f64cd}, !- Handle
  ,                                       !- Source Object
  11,                                     !- Outlet Port
  ,                                       !- Target Object
  2;                                      !- Inlet Port

OS:Space,
  {0de59da8-57c0-4247-98db-94f06e2019a8}, !- Handle
  Room_1_Flr_6,                           !- Name
  {968adab2-f5e7-46f2-8024-73181e80f0e2}, !- Space Type Name
  ,                                       !- Default Construction Set Name
  ,                                       !- Default Schedule Set Name
  -0,                                     !- Direction of Relative North {deg}
  0,                                      !- X Origin {m}
  0,                                      !- Y Origin {m}
  0,                                      !- Z Origin {m}
  {f4639d5b-3224-4500-bf20-cb7454712ad8}, !- Building Story Name
  {3f75d444-3e55-49b3-bdc0-e3cc6596f695}, !- Thermal Zone Name
  Yes,                                    !- Part of Total Floor Area
  ,                                       !- Design Specification Outdoor Air Object Name
  ,                                       !- Building Unit Name
  Autocalculate;                          !- Volume {m3}

OS:Surface,
  {ee353920-82ca-4e34-ba33-e311074ca69f}, !- Handle
  Kitchen_Flr_6_Wall_2_South,             !- Name
  Wall,                                   !- Surface Type
  ,                                       !- Construction Name
  {53c7fa8b-d0a9-4d59-9f72-ab5b6de28e90}, !- Space Name
  Surface,                                !- Outside Boundary Condition
  {f202c5d1-e9da-449b-8c2b-152d6fa4c82d}, !- Outside Boundary Condition Object
  NoSun,                                  !- Sun Exposure
  NoWind,                                 !- Wind Exposure
  ,                                       !- View Factor to Ground
  ,                                       !- Number of Vertices
  79.553, 12.497, 19.2,                   !- X,Y,Z Vertex 1 {m}
  79.553, 12.497, 16.152,                 !- X,Y,Z Vertex 2 {m}
  81.991, 12.497, 16.152,                 !- X,Y,Z Vertex 3 {m}
  81.991, 12.497, 19.2;                   !- X,Y,Z Vertex 4 {m}

OS:Surface,
  {0b060945-fb46-4201-aaf0-bddb9a183ad2}, !- Handle
  Corridor_Flr_3_Wall_1_West,             !- Name
  Wall,                                   !- Surface Type
  ,                                       !- Construction Name
  {1c9aeaea-a105-4381-890b-4d9f9ad931ee}, !- Space Name
  Surface,                                !- Outside Boundary Condition
  {aab7c0d5-5b9a-4a4e-8099-c532680d6184}, !- Outside Boundary Condition Object
  NoSun,                                  !- Sun Exposure
  NoWind,                                 !- Wind Exposure
  ,                                       !- View Factor to Ground
  ,                                       !- Number of Vertices
  79.858, 22.86, 10.056,                  !- X,Y,Z Vertex 1 {m}
  79.858, 22.86, 7.008,                   !- X,Y,Z Vertex 2 {m}
  79.858, 16.154, 7.008,                  !- X,Y,Z Vertex 3 {m}
  79.858, 16.154, 10.056;                 !- X,Y,Z Vertex 4 {m}

OS:Surface,
  {5f165543-3d92-4754-b4e9-1f4ac9dfdaf0}, !- Handle
  Kitchen_Flr_6_Wall_East,                !- Name
  Wall,                                   !- Surface Type
  ,                                       !- Construction Name
  {53c7fa8b-d0a9-4d59-9f72-ab5b6de28e90}, !- Space Name
  Outdoors,                               !- Outside Boundary Condition
  ,                                       !- Outside Boundary Condition Object
  SunExposed,                             !- Sun Exposure
  WindExposed,                            !- Wind Exposure
  ,                                       !- View Factor to Ground
  ,                                       !- Number of Vertices
  86.563, 5.791, 19.2,                    !- X,Y,Z Vertex 1 {m}
  86.563, 5.791, 16.152,                  !- X,Y,Z Vertex 2 {m}
  86.563, 22.86, 16.152,                  !- X,Y,Z Vertex 3 {m}
  86.563, 22.86, 19.2;                    !- X,Y,Z Vertex 4 {m}

OS:Surface,
  {8ba31644-ec77-4da4-859b-dbfdd3211676}, !- Handle
  Laundry_Flr_1_Wall_East,                !- Name
  Wall,                                   !- Surface Type
  ,                                       !- Construction Name
  {b4cff31b-2b2e-470e-b7c8-55b05f6374f6}, !- Space Name
  Outdoors,                               !- Outside Boundary Condition
  ,                                       !- Outside Boundary Condition Object
  SunExposed,                             !- Sun Exposure
  WindExposed,                            !- Wind Exposure
  ,                                       !- View Factor to Ground
  ,                                       !- Number of Vertices
  86.563, 5.791, 3.9624,                  !- X,Y,Z Vertex 1 {m}
  86.563, 5.791, 0,                       !- X,Y,Z Vertex 2 {m}
  86.563, 22.86, 0,                       !- X,Y,Z Vertex 3 {m}
  86.563, 22.86, 3.9624;                  !- X,Y,Z Vertex 4 {m}

OS:Surface,
  {53a2dd6e-afc3-44c3-848c-c61f69e5cc66}, !- Handle
  Room_2_Flr_3_Ceiling,                   !- Name
  RoofCeiling,                            !- Surface Type
  {180833a2-f0ff-4583-a9a5-9083ec060728}, !- Construction Name
  {c2047396-1edf-4b9c-ae11-1e2a58aeb534}, !- Space Name
  Adiabatic,                              !- Outside Boundary Condition
  ,                                       !- Outside Boundary Condition Object
  NoSun,                                  !- Sun Exposure
  NoWind,                                 !- Wind Exposure
  ,                                       !- View Factor to Ground
  ,                                       !- Number of Vertices
  4.572, 14.326, 10.056,                  !- X,Y,Z Vertex 1 {m}
  4.572, 22.86, 10.056,                   !- X,Y,Z Vertex 2 {m}
  0, 22.86, 10.056,                       !- X,Y,Z Vertex 3 {m}
  0, 14.326, 10.056;                      !- X,Y,Z Vertex 4 {m}

OS:Connection,
  {9a1629a6-e385-4fef-92df-9842db09e4b2}, !- Handle
  ,                                       !- Source Object
  11,                                     !- Outlet Port
  ,                                       !- Target Object
  2;                                      !- Inlet Port

OS:Space,
  {c2047396-1edf-4b9c-ae11-1e2a58aeb534}, !- Handle
  Room_2_Flr_3,                           !- Name
  {968adab2-f5e7-46f2-8024-73181e80f0e2}, !- Space Type Name
  ,                                       !- Default Construction Set Name
  ,                                       !- Default Schedule Set Name
  -0,                                     !- Direction of Relative North {deg}
  0,                                      !- X Origin {m}
  0,                                      !- Y Origin {m}
  0,                                      !- Z Origin {m}
  {2053599b-ba44-402f-8dd3-3ba65307fe07}, !- Building Story Name
  {b3ec8e4c-c2aa-456e-a803-398e9dd28918}, !- Thermal Zone Name
  Yes,                                    !- Part of Total Floor Area
  ,                                       !- Design Specification Outdoor Air Object Name
  ,                                       !- Building Unit Name
  Autocalculate;                          !- Volume {m3}

OS:Surface,
  {b4369eac-505d-4a88-bf01-f0dc75b94d66}, !- Handle
  Storage_Flr_1_Ceiling,                  !- Name
  RoofCeiling,                            !- Surface Type
  {180833a2-f0ff-4583-a9a5-9083ec060728}, !- Construction Name
  {99acb158-fe8d-42de-85ec-b09b0883f326}, !- Space Name
  Adiabatic,                              !- Outside Boundary Condition
  ,                                       !- Outside Boundary Condition Object
  NoSun,                                  !- Sun Exposure
  NoWind,                                 !- Wind Exposure
  ,                                       !- View Factor to Ground
  ,                                       !- Number of Vertices
  78.943, 12.497, 3.9624,                 !- X,Y,Z Vertex 1 {m}
  78.943, 22.86, 3.9624,                  !- X,Y,Z Vertex 2 {m}
  69.799, 22.86, 3.9624,                  !- X,Y,Z Vertex 3 {m}
  69.799, 12.497, 3.9624;                 !- X,Y,Z Vertex 4 {m}

OS:SubSurface,
  {d995e377-cd94-428a-8e7a-15b3020fe97e}, !- Handle
  Room_2_Flr_6_Wall_West_Window,          !- Name
  FixedWindow,                            !- Sub Surface Type
  ,                                       !- Construction Name
  {fdaee94d-b76a-49a0-a37f-6835aa3abafa}, !- Surface Name
  ,                                       !- Outside Boundary Condition Object
  ,                                       !- View Factor to Ground
  ,                                       !- Frame and Divider Name
  1,                                      !- Multiplier
  ,                                       !- Number of Vertices
  0, 22.113, 18.484,                      !- X,Y,Z Vertex 1 {m}
  0, 22.113, 17.264,                      !- X,Y,Z Vertex 2 {m}
  0, 15.072, 17.264,                      !- X,Y,Z Vertex 3 {m}
  0, 15.072, 18.484;                      !- X,Y,Z Vertex 4 {m}

OS:Surface,
  {fdaee94d-b76a-49a0-a37f-6835aa3abafa}, !- Handle
  Room_2_Flr_6_Wall_West,                 !- Name
  Wall,                                   !- Surface Type
  ,                                       !- Construction Name
  {735c6fa8-525c-45a3-82b3-b38ec3245a8f}, !- Space Name
  Outdoors,                               !- Outside Boundary Condition
  ,                                       !- Outside Boundary Condition Object
  SunExposed,                             !- Sun Exposure
  WindExposed,                            !- Wind Exposure
  ,                                       !- View Factor to Ground
  ,                                       !- Number of Vertices
  0, 22.86, 19.2,                         !- X,Y,Z Vertex 1 {m}
  0, 22.86, 16.152,                       !- X,Y,Z Vertex 2 {m}
  0, 14.326, 16.152,                      !- X,Y,Z Vertex 3 {m}
  0, 14.326, 19.2;                        !- X,Y,Z Vertex 4 {m}

OS:Surface,
  {beaa08de-dfbc-4feb-86c1-3ea7f29199fa}, !- Handle
  Corridor_Flr_3_Wall_3_South,            !- Name
  Wall,                                   !- Surface Type
  ,                                       !- Construction Name
  {1c9aeaea-a105-4381-890b-4d9f9ad931ee}, !- Space Name
  Surface,                                !- Outside Boundary Condition
  {bcb06a09-eb3e-4a7a-9f08-d0becac6dd99}, !- Outside Boundary Condition Object
  NoSun,                                  !- Sun Exposure
  NoWind,                                 !- Wind Exposure
  ,                                       !- View Factor to Ground
  ,                                       !- Number of Vertices
  6.706, 12.497, 10.056,                  !- X,Y,Z Vertex 1 {m}
  6.706, 12.497, 7.008,                   !- X,Y,Z Vertex 2 {m}
  10.363, 12.497, 7.008,                  !- X,Y,Z Vertex 3 {m}
  10.363, 12.497, 10.056;                 !- X,Y,Z Vertex 4 {m}

OS:Surface,
  {f202c5d1-e9da-449b-8c2b-152d6fa4c82d}, !- Handle
  Corridor_Flr_6_Wall_4_North,            !- Name
  Wall,                                   !- Surface Type
  ,                                       !- Construction Name
  {727f620c-8075-4586-8703-48bde7f60f5c}, !- Space Name
  Surface,                                !- Outside Boundary Condition
  {ee353920-82ca-4e34-ba33-e311074ca69f}, !- Outside Boundary Condition Object
  NoSun,                                  !- Sun Exposure
  NoWind,                                 !- Wind Exposure
  ,                                       !- View Factor to Ground
  ,                                       !- Number of Vertices
  81.991, 12.497, 19.2,                   !- X,Y,Z Vertex 1 {m}
  81.991, 12.497, 16.152,                 !- X,Y,Z Vertex 2 {m}
  79.553, 12.497, 16.152,                 !- X,Y,Z Vertex 3 {m}
  79.553, 12.497, 19.2;                   !- X,Y,Z Vertex 4 {m}

OS:Surface,
  {210ef259-71e9-4919-a02d-9ca0ab6c5860}, !- Handle
  Banquet_Flr_6_Floor,                    !- Name
  Floor,                                  !- Surface Type
  {180833a2-f0ff-4583-a9a5-9083ec060728}, !- Construction Name
  {ba3048dd-f7da-474c-bbec-d2605f9e6cc4}, !- Space Name
  Adiabatic,                              !- Outside Boundary Condition
  ,                                       !- Outside Boundary Condition Object
  NoSun,                                  !- Sun Exposure
  NoWind,                                 !- Wind Exposure
  ,                                       !- View Factor to Ground
  ,                                       !- Number of Vertices
  42.367, 22.86, 16.152,                  !- X,Y,Z Vertex 1 {m}
  42.367, 12.497, 16.152,                 !- X,Y,Z Vertex 2 {m}
  10.363, 12.497, 16.152,                 !- X,Y,Z Vertex 3 {m}
  10.363, 22.86, 16.152;                  !- X,Y,Z Vertex 4 {m}

OS:Surface,
  {2b053194-22f1-4933-8ea4-e17a1863840e}, !- Handle
  Room_4_1_Flr_3_Wall_North,              !- Name
  Wall,                                   !- Surface Type
  ,                                       !- Construction Name
  {72c99aa5-adda-4d43-8716-a054b8639a94}, !- Space Name
  Outdoors,                               !- Outside Boundary Condition
  ,                                       !- Outside Boundary Condition Object
  SunExposed,                             !- Sun Exposure
  WindExposed,                            !- Wind Exposure
  ,                                       !- View Factor to Ground
  ,                                       !- Number of Vertices
  14.021, 22.86, 10.056,                  !- X,Y,Z Vertex 1 {m}
  14.021, 22.86, 7.008,                   !- X,Y,Z Vertex 2 {m}
  10.363, 22.86, 7.008,                   !- X,Y,Z Vertex 3 {m}
  10.363, 22.86, 10.056;                  !- X,Y,Z Vertex 4 {m}

OS:Surface,
  {cf7d71e6-f4ef-40c8-a46c-72b13c07336e}, !- Handle
  Room_1_Flr_6_Ceiling,                   !- Name
  RoofCeiling,                            !- Surface Type
  ,                                       !- Construction Name
  {0de59da8-57c0-4247-98db-94f06e2019a8}, !- Space Name
  Outdoors,                               !- Outside Boundary Condition
  ,                                       !- Outside Boundary Condition Object
  SunExposed,                             !- Sun Exposure
  WindExposed,                            !- Wind Exposure
  ,                                       !- View Factor to Ground
  ,                                       !- Number of Vertices
  4.572, 5.791, 19.2,                     !- X,Y,Z Vertex 1 {m}
  4.572, 14.326, 19.2,                    !- X,Y,Z Vertex 2 {m}
  0, 14.326, 19.2,                        !- X,Y,Z Vertex 3 {m}
  0, 5.791, 19.2;                         !- X,Y,Z Vertex 4 {m}

OS:Surface,
  {4aa72038-7727-4edf-9cc6-ae6177728485}, !- Handle
  Retail_2_Flr_1_Wall_North,              !- Name
  Wall,                                   !- Surface Type
  ,                                       !- Construction Name
  {54b28b67-906c-4266-8d90-363643b15e57}, !- Space Name
  Surface,                                !- Outside Boundary Condition
  {ef763fb2-367c-49fc-9da4-9038fde893fe}, !- Outside Boundary Condition Object
  NoSun,                                  !- Sun Exposure
  NoWind,                                 !- Wind Exposure
  ,                                       !- View Factor to Ground
  ,                                       !- Number of Vertices
  11.582, 12.497, 3.9624,                 !- X,Y,Z Vertex 1 {m}
  11.582, 12.497, 0,                      !- X,Y,Z Vertex 2 {m}
  0, 12.497, 0,                           !- X,Y,Z Vertex 3 {m}
  0, 12.497, 3.9624;                      !- X,Y,Z Vertex 4 {m}

OS:Surface,
  {f022de67-b364-4496-a17c-508c289ad12a}, !- Handle
  Room_5_Flr_3_Wall_West,                 !- Name
  Wall,                                   !- Surface Type
  ,                                       !- Construction Name
  {f220e1f3-aa91-4513-9f9a-e8dd4a412b4d}, !- Space Name
  Surface,                                !- Outside Boundary Condition
  {3555610c-c00d-4c05-8f24-61af780e90e7}, !- Outside Boundary Condition Object
  NoSun,                                  !- Sun Exposure
  NoWind,                                 !- Wind Exposure
  ,                                       !- View Factor to Ground
  ,                                       !- Number of Vertices
  81.991, 14.326, 10.056,                 !- X,Y,Z Vertex 1 {m}
  81.991, 14.326, 7.008,                  !- X,Y,Z Vertex 2 {m}
  81.991, 5.791, 7.008,                   !- X,Y,Z Vertex 3 {m}
  81.991, 5.791, 10.056;                  !- X,Y,Z Vertex 4 {m}

OS:Surface,
  {2d68abc0-59d1-4be1-a1b8-f0d7820a5f5f}, !- Handle
  Corridor_Flr_6_Wall_3_West,             !- Name
  Wall,                                   !- Surface Type
  ,                                       !- Construction Name
  {727f620c-8075-4586-8703-48bde7f60f5c}, !- Space Name
  Surface,                                !- Outside Boundary Condition
  {1d7535ed-8bda-461b-aec2-a757ffe57c44}, !- Outside Boundary Condition Object
  NoSun,                                  !- Sun Exposure
  NoWind,                                 !- Wind Exposure
  ,                                       !- View Factor to Ground
  ,                                       !- Number of Vertices
  42.367, 22.86, 19.2,                    !- X,Y,Z Vertex 1 {m}
  42.367, 22.86, 16.152,                  !- X,Y,Z Vertex 2 {m}
  42.367, 12.497, 16.152,                 !- X,Y,Z Vertex 3 {m}
  42.367, 12.497, 19.2;                   !- X,Y,Z Vertex 4 {m}

OS:Surface,
  {d35f239f-e2d0-49a8-a2ce-9e4aaebcd33e}, !- Handle
  Room_6_Flr_3_Wall_West,                 !- Name
  Wall,                                   !- Surface Type
  ,                                       !- Construction Name
  {43edd94b-1dd2-4c9a-87d9-1a557847cf2c}, !- Space Name
  Surface,                                !- Outside Boundary Condition
  {c8182734-59d8-4875-aff7-58d242d7e0e0}, !- Outside Boundary Condition Object
  NoSun,                                  !- Sun Exposure
  NoWind,                                 !- Wind Exposure
  ,                                       !- View Factor to Ground
  ,                                       !- Number of Vertices
  81.991, 22.86, 10.056,                  !- X,Y,Z Vertex 1 {m}
  81.991, 22.86, 7.008,                   !- X,Y,Z Vertex 2 {m}
  81.991, 14.326, 7.008,                  !- X,Y,Z Vertex 3 {m}
  81.991, 14.326, 10.056;                 !- X,Y,Z Vertex 4 {m}

OS:Surface,
  {1d7535ed-8bda-461b-aec2-a757ffe57c44}, !- Handle
  Banquet_Flr_6_Wall_East,                !- Name
  Wall,                                   !- Surface Type
  ,                                       !- Construction Name
  {ba3048dd-f7da-474c-bbec-d2605f9e6cc4}, !- Space Name
  Surface,                                !- Outside Boundary Condition
  {2d68abc0-59d1-4be1-a1b8-f0d7820a5f5f}, !- Outside Boundary Condition Object
  NoSun,                                  !- Sun Exposure
  NoWind,                                 !- Wind Exposure
  ,                                       !- View Factor to Ground
  ,                                       !- Number of Vertices
  42.367, 12.497, 19.2,                   !- X,Y,Z Vertex 1 {m}
  42.367, 12.497, 16.152,                 !- X,Y,Z Vertex 2 {m}
  42.367, 22.86, 16.152,                  !- X,Y,Z Vertex 3 {m}
  42.367, 22.86, 19.2;                    !- X,Y,Z Vertex 4 {m}

OS:Surface,
  {2ce3fa8e-2831-43d3-ac32-ae151a787401}, !- Handle
  Room_2_Flr_6_Wall_South,                !- Name
  Wall,                                   !- Surface Type
  ,                                       !- Construction Name
  {735c6fa8-525c-45a3-82b3-b38ec3245a8f}, !- Space Name
  Surface,                                !- Outside Boundary Condition
  {3c1aa61b-f5e1-4632-bfeb-68b6223d6cdc}, !- Outside Boundary Condition Object
  NoSun,                                  !- Sun Exposure
  NoWind,                                 !- Wind Exposure
  ,                                       !- View Factor to Ground
  ,                                       !- Number of Vertices
  0, 14.326, 19.2,                        !- X,Y,Z Vertex 1 {m}
  0, 14.326, 16.152,                      !- X,Y,Z Vertex 2 {m}
  4.572, 14.326, 16.152,                  !- X,Y,Z Vertex 3 {m}
  4.572, 14.326, 19.2;                    !- X,Y,Z Vertex 4 {m}

OS:Surface,
  {e821dfdf-467e-4492-860e-4a13c86bd75e}, !- Handle
  Corridor_Flr_3_Wall_4_West,             !- Name
  Wall,                                   !- Surface Type
  ,                                       !- Construction Name
  {1c9aeaea-a105-4381-890b-4d9f9ad931ee}, !- Space Name
  Surface,                                !- Outside Boundary Condition
  {2b0dd343-b5f5-47c3-bf29-58c94b741b28}, !- Outside Boundary Condition Object
  NoSun,                                  !- Sun Exposure
  NoWind,                                 !- Wind Exposure
  ,                                       !- View Factor to Ground
  ,                                       !- Number of Vertices
  4.572, 22.86, 10.056,                   !- X,Y,Z Vertex 1 {m}
  4.572, 22.86, 7.008,                    !- X,Y,Z Vertex 2 {m}
  4.572, 14.326, 7.008,                   !- X,Y,Z Vertex 3 {m}
  4.572, 14.326, 10.056;                  !- X,Y,Z Vertex 4 {m}

OS:Surface,
  {17dfdcba-c50f-4091-8cba-dcea3fa04678}, !- Handle
  Room_5_Flr_3_Floor,                     !- Name
  Floor,                                  !- Surface Type
  {180833a2-f0ff-4583-a9a5-9083ec060728}, !- Construction Name
  {f220e1f3-aa91-4513-9f9a-e8dd4a412b4d}, !- Space Name
  Adiabatic,                              !- Outside Boundary Condition
  ,                                       !- Outside Boundary Condition Object
  NoSun,                                  !- Sun Exposure
  NoWind,                                 !- Wind Exposure
  ,                                       !- View Factor to Ground
  ,                                       !- Number of Vertices
  86.563, 14.326, 7.008,                  !- X,Y,Z Vertex 1 {m}
  86.563, 5.791, 7.008,                   !- X,Y,Z Vertex 2 {m}
  81.991, 5.791, 7.008,                   !- X,Y,Z Vertex 3 {m}
  81.991, 14.326, 7.008;                  !- X,Y,Z Vertex 4 {m}

OS:Surface,
  {7f756235-7db4-405e-ab5b-05eff39817d4}, !- Handle
  Kitchen_Flr_6_Wall_2_West,              !- Name
  Wall,                                   !- Surface Type
  ,                                       !- Construction Name
  {53c7fa8b-d0a9-4d59-9f72-ab5b6de28e90}, !- Space Name
  Surface,                                !- Outside Boundary Condition
  {c1690369-c030-4b65-88d1-44583822deaf}, !- Outside Boundary Condition Object
  NoSun,                                  !- Sun Exposure
  NoWind,                                 !- Wind Exposure
  ,                                       !- View Factor to Ground
  ,                                       !- Number of Vertices
  79.553, 22.86, 19.2,                    !- X,Y,Z Vertex 1 {m}
  79.553, 22.86, 16.152,                  !- X,Y,Z Vertex 2 {m}
  79.553, 12.497, 16.152,                 !- X,Y,Z Vertex 3 {m}
  79.553, 12.497, 19.2;                   !- X,Y,Z Vertex 4 {m}

OS:Surface,
  {cb9a3a4f-b8e4-4a27-843a-8d1886b91c11}, !- Handle
  Lobby_Flr_1_Wall_3_East,                !- Name
  Wall,                                   !- Surface Type
  ,                                       !- Construction Name
  {5f877673-6afe-4f1f-960f-7e78d281ff4b}, !- Space Name
  Surface,                                !- Outside Boundary Condition
  {f8bd3ee2-eb32-4f86-8652-6b7400ce65b3}, !- Outside Boundary Condition Object
  NoSun,                                  !- Sun Exposure
  NoWind,                                 !- Wind Exposure
  ,                                       !- View Factor to Ground
  ,                                       !- Number of Vertices
  81.991, 5.791, 3.9624,                  !- X,Y,Z Vertex 1 {m}
  81.991, 5.791, 0,                       !- X,Y,Z Vertex 2 {m}
  81.991, 22.86, 0,                       !- X,Y,Z Vertex 3 {m}
  81.991, 22.86, 3.9624;                  !- X,Y,Z Vertex 4 {m}

OS:Surface,
  {3e1f6fab-5da8-4429-850a-554b47078add}, !- Handle
  Room_1_Flr_6_Wall_South,                !- Name
  Wall,                                   !- Surface Type
  ,                                       !- Construction Name
  {0de59da8-57c0-4247-98db-94f06e2019a8}, !- Space Name
  Outdoors,                               !- Outside Boundary Condition
  ,                                       !- Outside Boundary Condition Object
  SunExposed,                             !- Sun Exposure
  WindExposed,                            !- Wind Exposure
  ,                                       !- View Factor to Ground
  ,                                       !- Number of Vertices
  0, 5.791, 19.2,                         !- X,Y,Z Vertex 1 {m}
  0, 5.791, 16.152,                       !- X,Y,Z Vertex 2 {m}
  4.572, 5.791, 16.152,                   !- X,Y,Z Vertex 3 {m}
  4.572, 5.791, 19.2;                     !- X,Y,Z Vertex 4 {m}

OS:Surface,
  {7479edd6-8b8d-418b-9640-ee6cc4e0ea14}, !- Handle
  Room_6_Flr_3_Floor,                     !- Name
  Floor,                                  !- Surface Type
  {180833a2-f0ff-4583-a9a5-9083ec060728}, !- Construction Name
  {43edd94b-1dd2-4c9a-87d9-1a557847cf2c}, !- Space Name
  Adiabatic,                              !- Outside Boundary Condition
  ,                                       !- Outside Boundary Condition Object
  NoSun,                                  !- Sun Exposure
  NoWind,                                 !- Wind Exposure
  ,                                       !- View Factor to Ground
  ,                                       !- Number of Vertices
  86.563, 22.86, 7.008,                   !- X,Y,Z Vertex 1 {m}
  86.563, 14.326, 7.008,                  !- X,Y,Z Vertex 2 {m}
  81.991, 14.326, 7.008,                  !- X,Y,Z Vertex 3 {m}
  81.991, 22.86, 7.008;                   !- X,Y,Z Vertex 4 {m}

OS:Surface,
  {274c7a29-1623-46cd-8382-62d8ea74d1ac}, !- Handle
  Retail_1_Flr_1_Ceiling,                 !- Name
  RoofCeiling,                            !- Surface Type
  ,                                       !- Construction Name
  {1a878509-17bb-4788-a93c-b231afdbd395}, !- Space Name
  Outdoors,                               !- Outside Boundary Condition
  ,                                       !- Outside Boundary Condition Object
  SunExposed,                             !- Sun Exposure
  WindExposed,                            !- Wind Exposure
  ,                                       !- View Factor to Ground
  ,                                       !- Number of Vertices
  11.582, 0, 3.9624,                      !- X,Y,Z Vertex 1 {m}
  11.582, 5.791, 3.9624,                  !- X,Y,Z Vertex 2 {m}
  0, 5.791, 3.9624,                       !- X,Y,Z Vertex 3 {m}
  0, 0, 3.9624;                           !- X,Y,Z Vertex 4 {m}

OS:Surface,
  {e251d8a8-d1e0-412d-a8f1-e9eaa6dad57a}, !- Handle
  Basement_Floor,                         !- Name
  Floor,                                  !- Surface Type
  {192d4d1f-f794-44fb-8118-657529d1050f}, !- Construction Name
  {e8215437-4d6e-4194-81a3-8e59d7aab856}, !- Space Name
  Foundation,                             !- Outside Boundary Condition
  {34809225-a99c-4834-8e09-b185c1cf3ba3}, !- Outside Boundary Condition Object
  NoSun,                                  !- Sun Exposure
  NoWind,                                 !- Wind Exposure
  ,                                       !- View Factor to Ground
  ,                                       !- Number of Vertices
  86.563, 22.86, -2.439,                  !- X,Y,Z Vertex 1 {m}
  86.563, 0, -2.439,                      !- X,Y,Z Vertex 2 {m}
  0, 0, -2.439,                           !- X,Y,Z Vertex 3 {m}
  0, 22.86, -2.439;                       !- X,Y,Z Vertex 4 {m}

OS:Surface,
  {692d00bb-7d9c-4c1b-8d72-c2570d5ccc8c}, !- Handle
  Lobby_Flr_1_Wall_4_North,               !- Name
  Wall,                                   !- Surface Type
  ,                                       !- Construction Name
  {5f877673-6afe-4f1f-960f-7e78d281ff4b}, !- Space Name
  Surface,                                !- Outside Boundary Condition
  {14a6da0a-ed6d-4e52-a7e9-de32beffd3d0}, !- Outside Boundary Condition Object
  NoSun,                                  !- Sun Exposure
  NoWind,                                 !- Wind Exposure
  ,                                       !- View Factor to Ground
  ,                                       !- Number of Vertices
  78.943, 12.497, 3.9624,                 !- X,Y,Z Vertex 1 {m}
  78.943, 12.497, 0,                      !- X,Y,Z Vertex 2 {m}
  69.799, 12.497, 0,                      !- X,Y,Z Vertex 3 {m}
  69.799, 12.497, 3.9624;                 !- X,Y,Z Vertex 4 {m}

OS:Surface,
  {891e583d-31fa-4e2c-a75e-bfc4ce0c77b3}, !- Handle
  Kitchen_Flr_6_Floor,                    !- Name
  Floor,                                  !- Surface Type
  {180833a2-f0ff-4583-a9a5-9083ec060728}, !- Construction Name
  {53c7fa8b-d0a9-4d59-9f72-ab5b6de28e90}, !- Space Name
  Adiabatic,                              !- Outside Boundary Condition
  ,                                       !- Outside Boundary Condition Object
  NoSun,                                  !- Sun Exposure
  NoWind,                                 !- Wind Exposure
  ,                                       !- View Factor to Ground
  ,                                       !- Number of Vertices
  86.563, 22.86, 16.152,                  !- X,Y,Z Vertex 1 {m}
  86.563, 5.791, 16.152,                  !- X,Y,Z Vertex 2 {m}
  81.991, 5.791, 16.152,                  !- X,Y,Z Vertex 3 {m}
  81.991, 12.497, 16.152,                 !- X,Y,Z Vertex 4 {m}
  79.553, 12.497, 16.152,                 !- X,Y,Z Vertex 5 {m}
  79.553, 22.86, 16.152;                  !- X,Y,Z Vertex 6 {m}

OS:SubSurface,
  {4f449350-f3b8-4d32-a084-2b1aba5e77bc}, !- Handle
  Kitchen_Flr_6_Wall_East_Window,         !- Name
  FixedWindow,                            !- Sub Surface Type
  ,                                       !- Construction Name
  {5f165543-3d92-4754-b4e9-1f4ac9dfdaf0}, !- Surface Name
  ,                                       !- Outside Boundary Condition Object
  ,                                       !- View Factor to Ground
  ,                                       !- Frame and Divider Name
  1,                                      !- Multiplier
  ,                                       !- Number of Vertices
  86.563, 7.285, 18.484,                  !- X,Y,Z Vertex 1 {m}
  86.563, 7.285, 17.264,                  !- X,Y,Z Vertex 2 {m}
  86.563, 21.366, 17.264,                 !- X,Y,Z Vertex 3 {m}
  86.563, 21.366, 18.484;                 !- X,Y,Z Vertex 4 {m}

OS:Surface,
  {e69b9328-831a-4395-80b6-bb2acd8bbe91}, !- Handle
  Mech_Flr_1_Wall_East,                   !- Name
  Wall,                                   !- Surface Type
  ,                                       !- Construction Name
  {1418486f-1953-4d9f-ae34-08fb8834ea7c}, !- Space Name
  Surface,                                !- Outside Boundary Condition
  {833bcdf3-65a5-4164-9ecc-1beb9f0eaded}, !- Outside Boundary Condition Object
  NoSun,                                  !- Sun Exposure
  NoWind,                                 !- Wind Exposure
  ,                                       !- View Factor to Ground
  ,                                       !- Number of Vertices
  69.799, 12.497, 3.9624,                 !- X,Y,Z Vertex 1 {m}
  69.799, 12.497, 0,                      !- X,Y,Z Vertex 2 {m}
  69.799, 22.86, 0,                       !- X,Y,Z Vertex 3 {m}
  69.799, 22.86, 3.9624;                  !- X,Y,Z Vertex 4 {m}

OS:Surface,
  {90914b80-119d-4577-84b5-6b94d4142544}, !- Handle
  Room_6_Flr_3_Wall_South,                !- Name
  Wall,                                   !- Surface Type
  ,                                       !- Construction Name
  {43edd94b-1dd2-4c9a-87d9-1a557847cf2c}, !- Space Name
  Surface,                                !- Outside Boundary Condition
  {092b94c2-3b7d-46ce-9cb9-f4af36859b94}, !- Outside Boundary Condition Object
  NoSun,                                  !- Sun Exposure
  NoWind,                                 !- Wind Exposure
  ,                                       !- View Factor to Ground
  ,                                       !- Number of Vertices
  81.991, 14.326, 10.056,                 !- X,Y,Z Vertex 1 {m}
  81.991, 14.326, 7.008,                  !- X,Y,Z Vertex 2 {m}
  86.563, 14.326, 7.008,                  !- X,Y,Z Vertex 3 {m}
  86.563, 14.326, 10.056;                 !- X,Y,Z Vertex 4 {m}

OS:Surface,
  {98aeb424-2280-4300-92de-cf851e3b800b}, !- Handle
  Room_1_Flr_3_Ceiling,                   !- Name
  RoofCeiling,                            !- Surface Type
  {180833a2-f0ff-4583-a9a5-9083ec060728}, !- Construction Name
  {60361c47-6132-479f-892b-2ef2551c2988}, !- Space Name
  Adiabatic,                              !- Outside Boundary Condition
  ,                                       !- Outside Boundary Condition Object
  NoSun,                                  !- Sun Exposure
  NoWind,                                 !- Wind Exposure
  ,                                       !- View Factor to Ground
  ,                                       !- Number of Vertices
  4.572, 5.791, 10.056,                   !- X,Y,Z Vertex 1 {m}
  4.572, 14.326, 10.056,                  !- X,Y,Z Vertex 2 {m}
  0, 14.326, 10.056,                      !- X,Y,Z Vertex 3 {m}
  0, 5.791, 10.056;                       !- X,Y,Z Vertex 4 {m}

OS:Surface,
  {41291f20-d018-46cb-8ce5-01d01fd4d407}, !- Handle
  Retail_1_Flr_1_Wall_South,              !- Name
  Wall,                                   !- Surface Type
  ,                                       !- Construction Name
  {1a878509-17bb-4788-a93c-b231afdbd395}, !- Space Name
  Outdoors,                               !- Outside Boundary Condition
  ,                                       !- Outside Boundary Condition Object
  SunExposed,                             !- Sun Exposure
  WindExposed,                            !- Wind Exposure
  ,                                       !- View Factor to Ground
  ,                                       !- Number of Vertices
  0, 0, 3.9624,                           !- X,Y,Z Vertex 1 {m}
  0, 0, 0,                                !- X,Y,Z Vertex 2 {m}
  11.582, 0, 0,                           !- X,Y,Z Vertex 3 {m}
  11.582, 0, 3.9624;                      !- X,Y,Z Vertex 4 {m}

OS:SubSurface,
  {04d41797-0499-456c-9cde-b98f5915439c}, !- Handle
  Room_6_Flr_3_Wall_North_Window,         !- Name
  FixedWindow,                            !- Sub Surface Type
  ,                                       !- Construction Name
  {228be3ab-60a2-4075-a255-0ca7e031bd61}, !- Surface Name
  ,                                       !- Outside Boundary Condition Object
  ,                                       !- View Factor to Ground
  ,                                       !- Frame and Divider Name
  1,                                      !- Multiplier
  ,                                       !- Number of Vertices
  86.163, 22.86, 9.3318,                  !- X,Y,Z Vertex 1 {m}
[...]
  ,                                       !- Cycling Run Time Control Type
  3600,                                   !- Cycling Run Time {s}
  {b0f2d749-7c3b-472e-8946-a0378084505a}, !- Control Zone or Zone List Name
  {db80f3d4-0330-48fe-b376-9f097e8c0e2a}, !- Cooling Control Zone or Zone List Name
  {64aa56bd-766a-4a60-af17-e314e38f308c}, !- Heating Control Zone or Zone List Name
  {7eeadcde-07ec-4302-b935-f36908495c3d}; !- Heating Zone Fans Only Zone or Zone List Name

OS:ModelObjectList,
  {b0f2d749-7c3b-472e-8946-a0378084505a}, !- Handle
  Availability Manager Night Cycle 6 Control Zone List; !- Name

OS:ModelObjectList,
  {db80f3d4-0330-48fe-b376-9f097e8c0e2a}, !- Handle
  Availability Manager Night Cycle 6 Cooling Control Zone List; !- Name

OS:ModelObjectList,
  {64aa56bd-766a-4a60-af17-e314e38f308c}, !- Handle
  Availability Manager Night Cycle 6 Heating Control Zone List; !- Name

OS:ModelObjectList,
  {7eeadcde-07ec-4302-b935-f36908495c3d}, !- Handle
  Availability Manager Night Cycle 6 Heating Zone Fans Only Zone List; !- Name

OS:Schedule:Ruleset,
  {207907d8-785e-4915-9a27-3a04de770f7e}, !- Handle
  sys_4|mixed|shr>none|sc>dx|sh>c-e|ssf>cv|zh>b-hw|zc>none|srf>none| 1 Occ Sch, !- Name
  {f5045271-3a54-4982-b9ca-f2c966d8f9a4}, !- Schedule Type Limits Name
  {37841efe-c125-4402-8c35-c9f0fa4b9db9}, !- Default Day Schedule Name
  {562058e0-040b-44b5-8eb9-0eea0fcb97e6}, !- Summer Design Day Schedule Name
  {33a63e5f-1ceb-4e41-bfa6-14d8358c50d8}; !- Winter Design Day Schedule Name

OS:Schedule:Day,
  {37841efe-c125-4402-8c35-c9f0fa4b9db9}, !- Handle
  sys_4|mixed|shr>none|sc>dx|sh>c-e|ssf>cv|zh>b-hw|zc>none|srf>none| 1 Occ Sch Default, !- Name
  {f5045271-3a54-4982-b9ca-f2c966d8f9a4}, !- Schedule Type Limits Name
  ,                                       !- Interpolate to Timestep
  24,                                     !- Hour 1
  0,                                      !- Minute 1
  1;                                      !- Value Until Time 1

OS:AdditionalProperties,
  {02935abf-7da5-4249-b1f1-f34396b52fd1}, !- Handle
  {207907d8-785e-4915-9a27-3a04de770f7e}, !- Object Name
  max_occ_in_spaces,                      !- Feature Name 1
  Double,                                 !- Feature Data Type 1
  8.8368927294520887,                     !- Feature Value 1
  number_of_spaces_included,              !- Feature Name 2
  Integer,                                !- Feature Data Type 2
  3,                                      !- Feature Value 2
  date_parent_object_last_edited,         !- Feature Name 3
  String,                                 !- Feature Data Type 3
  2025-10-15 18:07:21 UTC,                !- Feature Value 3
  date_parent_object_created,             !- Feature Name 4
  String,                                 !- Feature Data Type 4
  2025-10-15 18:07:21 UTC;                !- Feature Value 4

OS:Schedule:Day,
  {33a63e5f-1ceb-4e41-bfa6-14d8358c50d8}, !- Handle
  sys_4|mixed|shr>none|sc>dx|sh>c-e|ssf>cv|zh>b-hw|zc>none|srf>none| 1 Occ Sch Winter Design Day, !- Name
  {f5045271-3a54-4982-b9ca-f2c966d8f9a4}, !- Schedule Type Limits Name
  ,                                       !- Interpolate to Timestep
  24,                                     !- Hour 1
  0,                                      !- Minute 1
  1;                                      !- Value Until Time 1

OS:Schedule:Day,
  {562058e0-040b-44b5-8eb9-0eea0fcb97e6}, !- Handle
  sys_4|mixed|shr>none|sc>dx|sh>c-e|ssf>cv|zh>b-hw|zc>none|srf>none| 1 Occ Sch Summer Design Day, !- Name
  {f5045271-3a54-4982-b9ca-f2c966d8f9a4}, !- Schedule Type Limits Name
  ,                                       !- Interpolate to Timestep
  24,                                     !- Hour 1
  0,                                      !- Minute 1
  1;                                      !- Value Until Time 1

OS:Schedule:Rule,
  {a6a349fc-7c13-4c0b-a2c6-d7d99adf7926}, !- Handle
  Schedule Rule 102,                      !- Name
  {207907d8-785e-4915-9a27-3a04de770f7e}, !- Schedule Ruleset Name
  1,                                      !- Rule Order
  {fa172c2f-1764-4cef-824f-659593e4d2b6}, !- Day Schedule Name
  ,                                       !- Apply Sunday
  ,                                       !- Apply Monday
  ,                                       !- Apply Tuesday
  ,                                       !- Apply Wednesday
  ,                                       !- Apply Thursday
  ,                                       !- Apply Friday
  Yes,                                    !- Apply Saturday
  DateRange,                              !- Date Specification Type
  1,                                      !- Start Month
  7,                                      !- Start Day
  12,                                     !- End Month
  30;                                     !- End Day

OS:Schedule:Day,
  {fa172c2f-1764-4cef-824f-659593e4d2b6}, !- Handle
  Schedule Day 18,                        !- Name
  {f5045271-3a54-4982-b9ca-f2c966d8f9a4}, !- Schedule Type Limits Name
  ,                                       !- Interpolate to Timestep
  24,                                     !- Hour 1
  0,                                      !- Minute 1
  1;                                      !- Value Until Time 1

OS:Schedule:Rule,
  {2a5d9a7b-c0fe-4054-b8a4-91b1a59e0c74}, !- Handle
  Schedule Rule 103,                      !- Name
  {207907d8-785e-4915-9a27-3a04de770f7e}, !- Schedule Ruleset Name
  0,                                      !- Rule Order
  {34622139-761b-459f-bbc3-e166ec97da6e}, !- Day Schedule Name
  Yes,                                    !- Apply Sunday
  ,                                       !- Apply Monday
  ,                                       !- Apply Tuesday
  ,                                       !- Apply Wednesday
  ,                                       !- Apply Thursday
  ,                                       !- Apply Friday
  ,                                       !- Apply Saturday
  DateRange,                              !- Date Specification Type
  1,                                      !- Start Month
  1,                                      !- Start Day
  12,                                     !- End Month
  31;                                     !- End Day

OS:Schedule:Day,
  {34622139-761b-459f-bbc3-e166ec97da6e}, !- Handle
  Schedule Day 19,                        !- Name
  {f5045271-3a54-4982-b9ca-f2c966d8f9a4}, !- Schedule Type Limits Name
  ,                                       !- Interpolate to Timestep
  24,                                     !- Hour 1
  0,                                      !- Minute 1
  1;                                      !- Value Until Time 1

OS:AvailabilityManager:NightCycle,
  {81637d5f-2805-4a2e-8322-54e89d5c93a3}, !- Handle
  Availability Manager Night Cycle 7,     !- Name
  {76051c75-6caf-4481-aa4c-f5ca20492c4c}, !- Applicability Schedule
  ,                                       !- Fan Schedule
  CycleOnAny,                             !- Control Type
  1,                                      !- Thermostat Tolerance {deltaC}
  ,                                       !- Cycling Run Time Control Type
  3600,                                   !- Cycling Run Time {s}
  {77950afd-b262-45a9-a819-5e3b3f8175a3}, !- Control Zone or Zone List Name
  {4ca69513-daa6-42a1-9d71-8583fc539791}, !- Cooling Control Zone or Zone List Name
  {181b6a13-f5f9-491f-8d10-6f008acaa3b7}, !- Heating Control Zone or Zone List Name
  {a44a5961-8a41-4af4-b615-f91e0c380dc9}; !- Heating Zone Fans Only Zone or Zone List Name

OS:ModelObjectList,
  {77950afd-b262-45a9-a819-5e3b3f8175a3}, !- Handle
  Availability Manager Night Cycle 7 Control Zone List; !- Name

OS:ModelObjectList,
  {4ca69513-daa6-42a1-9d71-8583fc539791}, !- Handle
  Availability Manager Night Cycle 7 Cooling Control Zone List; !- Name

OS:ModelObjectList,
  {181b6a13-f5f9-491f-8d10-6f008acaa3b7}, !- Handle
  Availability Manager Night Cycle 7 Heating Control Zone List; !- Name

OS:ModelObjectList,
  {a44a5961-8a41-4af4-b615-f91e0c380dc9}, !- Handle
  Availability Manager Night Cycle 7 Heating Zone Fans Only Zone List; !- Name

OS:Schedule:Ruleset,
  {9a085d19-59b0-407a-84d0-c22a42f0178d}, !- Handle
  sys_6|mixed|shr>none|sh>c-e|sc>c-chw|ssf>vv|zh>b-hw|zc>none|srf>vv| Occ Sch, !- Name
  {f5045271-3a54-4982-b9ca-f2c966d8f9a4}, !- Schedule Type Limits Name
  {3770e5b4-aa1f-4c7a-8642-104c9dd464f7}, !- Default Day Schedule Name
  {c5b387d6-7997-4dc8-941c-2872d18bf37a}, !- Summer Design Day Schedule Name
  {9d242c72-5657-431b-a4c5-c9d76be793d4}; !- Winter Design Day Schedule Name

OS:Schedule:Day,
  {3770e5b4-aa1f-4c7a-8642-104c9dd464f7}, !- Handle
  sys_6|mixed|shr>none|sh>c-e|sc>c-chw|ssf>vv|zh>b-hw|zc>none|srf>vv| Occ Sch Default, !- Name
  {f5045271-3a54-4982-b9ca-f2c966d8f9a4}, !- Schedule Type Limits Name
  ,                                       !- Interpolate to Timestep
  24,                                     !- Hour 1
  0,                                      !- Minute 1
  1;                                      !- Value Until Time 1

OS:AdditionalProperties,
  {8a4409ed-a3db-4755-964c-3b8a8c18ecdf}, !- Handle
  {9a085d19-59b0-407a-84d0-c22a42f0178d}, !- Object Name
  max_occ_in_spaces,                      !- Feature Name 1
  Double,                                 !- Feature Data Type 1
  145.09699102408274,                     !- Feature Value 1
  number_of_spaces_included,              !- Feature Name 2
  Integer,                                !- Feature Data Type 2
  4,                                      !- Feature Value 2
  date_parent_object_last_edited,         !- Feature Name 3
  String,                                 !- Feature Data Type 3
  2025-10-15 18:07:21 UTC,                !- Feature Value 3
  date_parent_object_created,             !- Feature Name 4
  String,                                 !- Feature Data Type 4
  2025-10-15 18:07:21 UTC;                !- Feature Value 4

OS:Schedule:Day,
  {9d242c72-5657-431b-a4c5-c9d76be793d4}, !- Handle
  sys_6|mixed|shr>none|sh>c-e|sc>c-chw|ssf>vv|zh>b-hw|zc>none|srf>vv| Occ Sch Winter Design Day, !- Name
  {f5045271-3a54-4982-b9ca-f2c966d8f9a4}, !- Schedule Type Limits Name
  ,                                       !- Interpolate to Timestep
  24,                                     !- Hour 1
  0,                                      !- Minute 1
  1;                                      !- Value Until Time 1

OS:Schedule:Day,
  {c5b387d6-7997-4dc8-941c-2872d18bf37a}, !- Handle
  sys_6|mixed|shr>none|sh>c-e|sc>c-chw|ssf>vv|zh>b-hw|zc>none|srf>vv| Occ Sch Summer Design Day, !- Name
  {f5045271-3a54-4982-b9ca-f2c966d8f9a4}, !- Schedule Type Limits Name
  ,                                       !- Interpolate to Timestep
  24,                                     !- Hour 1
  0,                                      !- Minute 1
  1;                                      !- Value Until Time 1

OS:Schedule:Rule,
  {2194416c-f2d5-4b88-920a-55ee323a2007}, !- Handle
  Schedule Rule 104,                      !- Name
  {9a085d19-59b0-407a-84d0-c22a42f0178d}, !- Schedule Ruleset Name
  1,                                      !- Rule Order
  {83e481fe-3fc9-48df-ad7b-0464f212496a}, !- Day Schedule Name
  ,                                       !- Apply Sunday
  ,                                       !- Apply Monday
  ,                                       !- Apply Tuesday
  ,                                       !- Apply Wednesday
  ,                                       !- Apply Thursday
  ,                                       !- Apply Friday
  Yes,                                    !- Apply Saturday
  DateRange,                              !- Date Specification Type
  1,                                      !- Start Month
  7,                                      !- Start Day
  12,                                     !- End Month
  30;                                     !- End Day

OS:Schedule:Day,
  {83e481fe-3fc9-48df-ad7b-0464f212496a}, !- Handle
  Schedule Day 20,                        !- Name
  {f5045271-3a54-4982-b9ca-f2c966d8f9a4}, !- Schedule Type Limits Name
  ,                                       !- Interpolate to Timestep
  24,                                     !- Hour 1
  0,                                      !- Minute 1
  1;                                      !- Value Until Time 1

OS:Schedule:Rule,
  {16c07154-1014-442b-8d58-f93373619b4a}, !- Handle
  Schedule Rule 105,                      !- Name
  {9a085d19-59b0-407a-84d0-c22a42f0178d}, !- Schedule Ruleset Name
  0,                                      !- Rule Order
  {9c5eacd4-29bc-4752-8b1c-8c8ebcb1e9d9}, !- Day Schedule Name
  Yes,                                    !- Apply Sunday
  ,                                       !- Apply Monday
  ,                                       !- Apply Tuesday
  ,                                       !- Apply Wednesday
  ,                                       !- Apply Thursday
  ,                                       !- Apply Friday
  ,                                       !- Apply Saturday
  DateRange,                              !- Date Specification Type
  1,                                      !- Start Month
  1,                                      !- Start Day
  12,                                     !- End Month
  31;                                     !- End Day

OS:Schedule:Day,
  {9c5eacd4-29bc-4752-8b1c-8c8ebcb1e9d9}, !- Handle
  Schedule Day 21,                        !- Name
  {f5045271-3a54-4982-b9ca-f2c966d8f9a4}, !- Schedule Type Limits Name
  ,                                       !- Interpolate to Timestep
  24,                                     !- Hour 1
  0,                                      !- Minute 1
  1;                                      !- Value Until Time 1

OS:Curve:Biquadratic,
  {ee6796e9-3b30-438a-84fc-db5b3737d549}, !- Handle
  DXCOOL-NECB2011-REF-CAPFT,              !- Name
  0.867905,                               !- Coefficient1 Constant
  0.0142459,                              !- Coefficient2 x
  0.00055436,                             !- Coefficient3 x**2
  -0.0075575,                             !- Coefficient4 y
  3.3e-05,                                !- Coefficient5 y**2
  -0.0001918,                             !- Coefficient6 x*y
  13,                                     !- Minimum Value of x
  24,                                     !- Maximum Value of x
  24,                                     !- Minimum Value of y
  46;                                     !- Maximum Value of y

OS:Curve:Quadratic,
  {512deab1-9e95-4a0f-9f27-54713be3f7b2}, !- Handle
  DXCOOL-NECB2011-REF-CAPFFLOW,           !- Name
  0.8,                                    !- Coefficient1 Constant
  0.2,                                    !- Coefficient2 x
  0,                                      !- Coefficient3 x**2
  0.5,                                    !- Minimum Value of x
  1.5;                                    !- Maximum Value of x

OS:Curve:Biquadratic,
  {9f3db7c3-58d1-468b-8c91-41e2b6d52f93}, !- Handle
  DXCOOL-NECB2011-REF-COOLEIRFT,          !- Name
  0.1141714,                              !- Coefficient1 Constant
  0.02818224,                             !- Coefficient2 x
  -0.0004199,                             !- Coefficient3 x**2
  0.02141082,                             !- Coefficient4 y
  0.000161028,                            !- Coefficient5 y**2
  -0.000679104,                           !- Coefficient6 x*y
  13,                                     !- Minimum Value of x
  24,                                     !- Maximum Value of x
  24,                                     !- Minimum Value of y
  46;                                     !- Maximum Value of y

OS:Curve:Quadratic,
  {3378ed71-eb2a-486f-b439-b106f3d3c858}, !- Handle
  DXCOOL-NECB2011-REF-COOLEIRFFLOW,       !- Name
  1.1552,                                 !- Coefficient1 Constant
  -0.1808,                                !- Coefficient2 x
  0.0256,                                 !- Coefficient3 x**2
  0.5,                                    !- Minimum Value of x
  1.5;                                    !- Maximum Value of x

OS:Curve:Cubic,
  {9b3e3c0b-16a2-44cb-a934-90d9673cb43d}, !- Handle
  DXCOOL-NECB2011-REF-COOLPLFFPLR,        !- Name
  0.0277,                                 !- Coefficient1 Constant
  4.9151,                                 !- Coefficient2 x
  -8.184,                                 !- Coefficient3 x**2
  4.2702,                                 !- Coefficient4 x**3
  0.7,                                    !- Minimum Value of x
  1;                                      !- Maximum Value of x

OS:AdditionalProperties,
  {49c79a97-bfae-4c6f-a302-f3e1e4704e52}, !- Handle
  {df86ec4f-dafa-4bfc-91c5-45dc019bcad0}; !- Object Name

OS:Curve:Biquadratic,
  {5d55c620-a71a-4508-bcb7-1fdecdbc503c}, !- Handle
  WaterCooled_Reciprocating_CAPFT_NECB2011, !- Name
  1.03031,                                !- Coefficient1 Constant
  0.0334698,                              !- Coefficient2 x
  0.00023639,                             !- Coefficient3 x**2
  -0.00729587,                            !- Coefficient4 y
  -2.3166e-05,                            !- Coefficient5 y**2
  -0.000148943,                           !- Coefficient6 x*y
  5,                                      !- Minimum Value of x
  10,                                     !- Maximum Value of x
  24,                                     !- Minimum Value of y
  35;                                     !- Maximum Value of y

OS:Curve:Biquadratic,
  {ad8b9d8c-03ac-4064-aa78-2fc52866a496}, !- Handle
  WaterCooled_Reciprocating_EIRFT_NECB2011, !- Name
  0.499699,                               !- Coefficient1 Constant
  -0.0130841,                             !- Coefficient2 x
  0.000266425,                            !- Coefficient3 x**2
  0.0165925,                              !- Coefficient4 y
  0.000185393,                            !- Coefficient5 y**2
  -0.000375646,                           !- Coefficient6 x*y
  5,                                      !- Minimum Value of x
  10,                                     !- Maximum Value of x
  24,                                     !- Minimum Value of y
  35;                                     !- Maximum Value of y

OS:Curve:Quadratic,
  {f0caad81-5994-4c20-a5e2-22514b87a144}, !- Handle
  WaterCooled_Reciprocating_EIRFPLR_NECB2011, !- Name
  0.081441,                               !- Coefficient1 Constant
  0.419271,                               !- Coefficient2 x
  0.499396,                               !- Coefficient3 x**2
  0,                                      !- Minimum Value of x
  1;                                      !- Maximum Value of x

OS:AdditionalProperties,
  {35760c88-ead4-492e-8560-8f0469a44fad}, !- Handle
  {8422e782-3d65-4706-a3d2-c8a91b1c1e90}; !- Object Name

OS:Curve:Cubic,
  {e1c4d7b2-5b31-435c-8d09-80dbdf1f4771}, !- Handle
  BOILER-EFFFPLR-NECB2011,                !- Name
  0.3831,                                 !- Coefficient1 Constant
  2.0567,                                 !- Coefficient2 x
  -2.6469,                                !- Coefficient3 x**2
  1.2148,                                 !- Coefficient4 x**3
  0,                                      !- Minimum Value of x
  1;                                      !- Maximum Value of x

OS:Curve:Cubic,
  {3ebbd197-2d21-4ebf-a534-16c973c9f6a3}, !- Handle
  SWH-EFFFPLR-NECB2011,                   !- Name
  0.7576,                                 !- Coefficient1 Constant
  1.0071,                                 !- Coefficient2 x
  -1.4443,                                !- Coefficient3 x**2
  0.6844,                                 !- Coefficient4 x**3
  0,                                      !- Minimum Value of x
  1;                                      !- Maximum Value of x

