
OS:Version,
  {c0e12e29-5cd5-43d2-b6e1-177122610047}, !- Handle
  3.9.0;                                  !- Version Identifier

OS:ScheduleTypeLimits,
  {907b1a13-4e09-4bbf-a59c-2ca44e4d5902}, !- Handle
  Always On Discrete Limits,              !- Name
  0,                                      !- Lower Limit Value
  1,                                      !- Upper Limit Value
  Discrete,                               !- Numeric Type
  Availability;                           !- Unit Type

OS:Site,
  {780cebd4-d970-49f6-8a67-996a6b51b6bf}, !- Handle
  Calgary Intl AP_AB_CAN,                 !- Name
  51.11,                                  !- Latitude {deg}
  -114.02,                                !- Longitude {deg}
  -7,                                     !- Time Zone {hr}
  1084.1,                                 !- Elevation {m}
  City;                                   !- Terrain

OS:SimulationControl,
  {8e6d581c-8bc1-4ad1-93a1-3671638d2d44}, !- Handle
  Yes,                                    !- Do Zone Sizing Calculation
  Yes,                                    !- Do System Sizing Calculation
  Yes,                                    !- Do Plant Sizing Calculation
  No,                                     !- Run Simulation for Sizing Periods
  Yes,                                    !- Run Simulation for Weather File Run Periods
  0.04,                                   !- Loads Convergence Tolerance Value {W}
  0.2,                                    !- Temperature Convergence Tolerance Value {deltaC}
  FullInteriorAndExterior,                !- Solar Distribution
  25,                                     !- Maximum Number of Warmup Days
  6,                                      !- Minimum Number of Warmup Days
  No,                                     !- Do HVAC Sizing Simulation for Sizing Periods
  1;                                      !- Maximum Number of HVAC Sizing Simulation Passes

OS:Surface,
  {f92df46b-44ed-4bc4-a65b-b4687c727c14}, !- Handle
  Kitchen_Ceiling,                        !- Name
  RoofCeiling,                            !- Surface Type
  ,                                       !- Construction Name
  {77d3cfbe-7d30-4aaf-86db-75976a798830}, !- Space Name
  Surface,                                !- Outside Boundary Condition
  {99a3fb5b-eea2-4c47-b391-cc45f8583bd0}, !- Outside Boundary Condition Object
  NoSun,                                  !- Sun Exposure
  NoWind,                                 !- Wind Exposure
  ,                                       !- View Factor to Ground
  ,                                       !- Number of Vertices
  22.6087, 16.4427, 3.0488,               !- X,Y,Z Vertex 1 {m}
  22.6087, 22.6087, 3.0488,               !- X,Y,Z Vertex 2 {m}
  0, 22.6087, 3.0488,                     !- X,Y,Z Vertex 3 {m}
  0, 16.4427, 3.0488;                     !- X,Y,Z Vertex 4 {m}

OS:Space,
  {77d3cfbe-7d30-4aaf-86db-75976a798830}, !- Handle
  Kitchen,                                !- Name
  {f72f339a-7251-400d-abf7-c267ec6d3b23}, !- Space Type Name
  ,                                       !- Default Construction Set Name
  ,                                       !- Default Schedule Set Name
  0,                                      !- Direction of Relative North {deg}
  0,                                      !- X Origin {m}
  0,                                      !- Y Origin {m}
  0,                                      !- Z Origin {m}
  {28f49d8d-3737-4296-b4ec-3bf67b00f788}, !- Building Story Name
  {60828dfb-88c7-4a92-89e2-dc9538238efa}, !- Thermal Zone Name
  Yes,                                    !- Part of Total Floor Area
  ,                                       !- Design Specification Outdoor Air Object Name
  ,                                       !- Building Unit Name
  Autocalculate;                          !- Volume {m3}

OS:Output:Meter,
  {2c504f0f-1677-4791-a625-c9fdceff2175}, !- Handle
  ElectricityNet:Facility,                !- Name
  Hourly,                                 !- Reporting Frequency
  True,                                   !- Meter File Only
  False;                                  !- Cumulative

OS:Surface,
  {a98a3d24-77be-4dd8-9ea4-dce8b4b21baf}, !- Handle
  Dining_Wall_South,                      !- Name
  Wall,                                   !- Surface Type
  ,                                       !- Construction Name
  {d48cb50c-3a07-4ed6-baac-fe451a3f5495}, !- Space Name
  Outdoors,                               !- Outside Boundary Condition
  ,                                       !- Outside Boundary Condition Object
  SunExposed,                             !- Sun Exposure
  WindExposed,                            !- Wind Exposure
  ,                                       !- View Factor to Ground
  ,                                       !- Number of Vertices
  0, 0, 3.0488,                           !- X,Y,Z Vertex 1 {m}
  0, 0, 0,                                !- X,Y,Z Vertex 2 {m}
  22.6087, 0, 0,                          !- X,Y,Z Vertex 3 {m}
  22.6087, 0, 3.0488;                     !- X,Y,Z Vertex 4 {m}

OS:Space,
  {d48cb50c-3a07-4ed6-baac-fe451a3f5495}, !- Handle
  Dining,                                 !- Name
  {74d79ecf-87d4-4cbb-ba37-86cfde5c20bb}, !- Space Type Name
  ,                                       !- Default Construction Set Name
  ,                                       !- Default Schedule Set Name
  0,                                      !- Direction of Relative North {deg}
  0,                                      !- X Origin {m}
  0,                                      !- Y Origin {m}
  0,                                      !- Z Origin {m}
  {28f49d8d-3737-4296-b4ec-3bf67b00f788}, !- Building Story Name
  {539742d8-1bf9-431b-94e3-40cfd0040cd7}, !- Thermal Zone Name
  Yes,                                    !- Part of Total Floor Area
  ,                                       !- Design Specification Outdoor Air Object Name
  ,                                       !- Building Unit Name
  Autocalculate;                          !- Volume {m3}

OS:Surface,
  {2d02da2f-1bea-4fb4-b48e-f0da184c6074}, !- Handle
  north-roof,                             !- Name
  RoofCeiling,                            !- Surface Type
  ,                                       !- Construction Name
  {a6d9b45b-2723-43c6-8355-1e3d52bed681}, !- Space Name
  Outdoors,                               !- Outside Boundary Condition
  ,                                       !- Outside Boundary Condition Object
  SunExposed,                             !- Sun Exposure
  WindExposed,                            !- Wind Exposure
  ,                                       !- View Factor to Ground
  ,                                       !- Number of Vertices
  11.3044, 18.8397, 3.7692,               !- X,Y,Z Vertex 1 {m}
  22.6087, 22.6087, 0,                    !- X,Y,Z Vertex 2 {m}
  0, 22.6087, 0;                          !- X,Y,Z Vertex 3 {m}

OS:Space,
  {a6d9b45b-2723-43c6-8355-1e3d52bed681}, !- Handle
  attic,                                  !- Name
  {73bc1497-600d-436a-a675-cd1456fcf9ac}, !- Space Type Name
  ,                                       !- Default Construction Set Name
  ,                                       !- Default Schedule Set Name
  0,                                      !- Direction of Relative North {deg}
  0,                                      !- X Origin {m}
  0,                                      !- Y Origin {m}
  3.0488,                                 !- Z Origin {m}
  {f0fd8038-c2dd-4caa-93ad-11e3bdfa35ec}, !- Building Story Name
  {dd4bca68-17f1-45f5-80a3-f1656e1764bd}, !- Thermal Zone Name
  No,                                     !- Part of Total Floor Area
  ,                                       !- Design Specification Outdoor Air Object Name
  ,                                       !- Building Unit Name
  Autocalculate;                          !- Volume {m3}

OS:Surface,
  {628c7363-89f7-4a36-b959-b9f52e0cab7c}, !- Handle
  Kitchen_Wall_North,                     !- Name
  Wall,                                   !- Surface Type
  ,                                       !- Construction Name
  {77d3cfbe-7d30-4aaf-86db-75976a798830}, !- Space Name
  Outdoors,                               !- Outside Boundary Condition
  ,                                       !- Outside Boundary Condition Object
  SunExposed,                             !- Sun Exposure
  WindExposed,                            !- Wind Exposure
  ,                                       !- View Factor to Ground
  ,                                       !- Number of Vertices
  22.6087, 22.6087, 3.0488,               !- X,Y,Z Vertex 1 {m}
  22.6087, 22.6087, 0,                    !- X,Y,Z Vertex 2 {m}
  0, 22.6087, 0,                          !- X,Y,Z Vertex 3 {m}
  0, 22.6087, 3.0488;                     !- X,Y,Z Vertex 4 {m}

OS:Surface,
  {c8a19cd4-2eef-4dab-9ff8-b3cd1bd596db}, !- Handle
  south-roof,                             !- Name
  RoofCeiling,                            !- Surface Type
  ,                                       !- Construction Name
  {a6d9b45b-2723-43c6-8355-1e3d52bed681}, !- Space Name
  Outdoors,                               !- Outside Boundary Condition
  ,                                       !- Outside Boundary Condition Object
  SunExposed,                             !- Sun Exposure
  WindExposed,                            !- Wind Exposure
  ,                                       !- View Factor to Ground
  ,                                       !- Number of Vertices
  11.3044, 3.769, 3.7692,                 !- X,Y,Z Vertex 1 {m}
  -1.73917179908584e-034, -6.74580236774689e-017, 6.7454444242911e-017, !- X,Y,Z Vertex 2 {m}
  22.6087, -9.66039263974126e-017, 9.65988004329428e-017; !- X,Y,Z Vertex 3 {m}

OS:Surface,
  {80882478-4818-4b6c-a701-0a4f97af99ea}, !- Handle
  Dining_Wall_East,                       !- Name
  Wall,                                   !- Surface Type
  ,                                       !- Construction Name
  {d48cb50c-3a07-4ed6-baac-fe451a3f5495}, !- Space Name
  Outdoors,                               !- Outside Boundary Condition
  ,                                       !- Outside Boundary Condition Object
  SunExposed,                             !- Sun Exposure
  WindExposed,                            !- Wind Exposure
  ,                                       !- View Factor to Ground
  ,                                       !- Number of Vertices
  22.6087, 0, 3.0488,                     !- X,Y,Z Vertex 1 {m}
  22.6087, 0, 0,                          !- X,Y,Z Vertex 2 {m}
  22.6087, 16.4427, 0,                    !- X,Y,Z Vertex 3 {m}
  22.6087, 16.4427, 3.0488;               !- X,Y,Z Vertex 4 {m}

OS:Timestep,
  {79cc9340-93d4-4f72-a5ca-b64451a57564}, !- Handle
  6;                                      !- Number of Timesteps per Hour

OS:Surface,
  {8f0d9014-6f65-4cc2-a0bf-390dce688306}, !- Handle
  Dining_Wall_West,                       !- Name
  Wall,                                   !- Surface Type
  ,                                       !- Construction Name
  {d48cb50c-3a07-4ed6-baac-fe451a3f5495}, !- Space Name
  Outdoors,                               !- Outside Boundary Condition
  ,                                       !- Outside Boundary Condition Object
  SunExposed,                             !- Sun Exposure
  WindExposed,                            !- Wind Exposure
  ,                                       !- View Factor to Ground
  ,                                       !- Number of Vertices
  0, 16.4427, 3.0488,                     !- X,Y,Z Vertex 1 {m}
  0, 16.4427, 0,                          !- X,Y,Z Vertex 2 {m}
  0, 0, 0,                                !- X,Y,Z Vertex 3 {m}
  0, 0, 3.0488;                           !- X,Y,Z Vertex 4 {m}

OS:Surface,
  {cb50c49a-cbad-4855-96c4-0782e1d597c9}, !- Handle
  Dining_Floor,                           !- Name
  Floor,                                  !- Surface Type
  {e955566d-1f16-4a12-aa83-c3520180ae24}, !- Construction Name
  {d48cb50c-3a07-4ed6-baac-fe451a3f5495}, !- Space Name
  Foundation,                             !- Outside Boundary Condition
  {470a4fb5-cfa2-4613-aedd-916cf8a7ed80}, !- Outside Boundary Condition Object
  NoSun,                                  !- Sun Exposure
  NoWind,                                 !- Wind Exposure
  ,                                       !- View Factor to Ground
  ,                                       !- Number of Vertices
  22.6087, 16.4427, 0,                    !- X,Y,Z Vertex 1 {m}
  22.6087, 0, 0,                          !- X,Y,Z Vertex 2 {m}
  0, 0, 0,                                !- X,Y,Z Vertex 3 {m}
  0, 16.4427, 0;                          !- X,Y,Z Vertex 4 {m}

OS:Surface,
  {ff63dcc8-88a6-4e75-a736-a16ea7374519}, !- Handle
  Dining_Ceiling,                         !- Name
  RoofCeiling,                            !- Surface Type
  ,                                       !- Construction Name
  {d48cb50c-3a07-4ed6-baac-fe451a3f5495}, !- Space Name
  Surface,                                !- Outside Boundary Condition
  {60fffe8d-e21f-43c1-9f06-30986f76ee3e}, !- Outside Boundary Condition Object
  NoSun,                                  !- Sun Exposure
  NoWind,                                 !- Wind Exposure
  ,                                       !- View Factor to Ground
  ,                                       !- Number of Vertices
  22.6087, 0, 3.0488,                     !- X,Y,Z Vertex 1 {m}
  22.6087, 16.4427, 3.0488,               !- X,Y,Z Vertex 2 {m}
  0, 16.4427, 3.0488,                     !- X,Y,Z Vertex 3 {m}
  0, 0, 3.0488;                           !- X,Y,Z Vertex 4 {m}

OS:Surface,
  {15bdfbf5-28b3-4f6b-939c-af2a310fc326}, !- Handle
  west-roof,                              !- Name
  RoofCeiling,                            !- Surface Type
  ,                                       !- Construction Name
  {a6d9b45b-2723-43c6-8355-1e3d52bed681}, !- Space Name
  Outdoors,                               !- Outside Boundary Condition
  ,                                       !- Outside Boundary Condition Object
  SunExposed,                             !- Sun Exposure
  WindExposed,                            !- Wind Exposure
  ,                                       !- View Factor to Ground
  ,                                       !- Number of Vertices
  11.3044, 18.8397, 3.7692,               !- X,Y,Z Vertex 1 {m}
  -1.57308521999447e-016, 22.6087, 4.71792013183315e-016, !- X,Y,Z Vertex 2 {m}
  -1.1417329679585e-016, -2.17720723655857e-033, 3.42422958797359e-016, !- X,Y,Z Vertex 3 {m}
  11.3044, 3.769, 3.7692;                 !- X,Y,Z Vertex 4 {m}

OS:Surface,
  {b8b44463-bcda-4673-8d04-2c845d134292}, !- Handle
  Kitchen_Wall_West,                      !- Name
  Wall,                                   !- Surface Type
  ,                                       !- Construction Name
  {77d3cfbe-7d30-4aaf-86db-75976a798830}, !- Space Name
  Outdoors,                               !- Outside Boundary Condition
  ,                                       !- Outside Boundary Condition Object
  SunExposed,                             !- Sun Exposure
  WindExposed,                            !- Wind Exposure
  ,                                       !- View Factor to Ground
  ,                                       !- Number of Vertices
  0, 22.6087, 3.0488,                     !- X,Y,Z Vertex 1 {m}
  0, 22.6087, 0,                          !- X,Y,Z Vertex 2 {m}
  0, 16.4427, 0,                          !- X,Y,Z Vertex 3 {m}
  0, 16.4427, 3.0488;                     !- X,Y,Z Vertex 4 {m}

OS:Surface,
  {18d25d92-d723-4017-980c-f20184bc1dd2}, !- Handle
  Dining_Wall_North-PPAutoCreateOther,    !- Name
  Wall,                                   !- Surface Type
  ,                                       !- Construction Name
  {77d3cfbe-7d30-4aaf-86db-75976a798830}, !- Space Name
  Surface,                                !- Outside Boundary Condition
  {1bf4d799-b7fc-481e-b40e-29c78d189519}, !- Outside Boundary Condition Object
  NoSun,                                  !- Sun Exposure
  NoWind,                                 !- Wind Exposure
  ,                                       !- View Factor to Ground
  ,                                       !- Number of Vertices
  0, 16.4427, 3.0488,                     !- X,Y,Z Vertex 1 {m}
  0, 16.4427, 0,                          !- X,Y,Z Vertex 2 {m}
  22.6087, 16.4427, 0,                    !- X,Y,Z Vertex 3 {m}
  22.6087, 16.4427, 3.0488;               !- X,Y,Z Vertex 4 {m}

OS:ShadowCalculation,
  {137b265b-7d90-4b85-83d6-6f49d95bdf56}, !- Handle
  PolygonClipping,                        !- Shading Calculation Method
  ,                                       !- Shading Calculation Update Frequency Method
  7,                                      !- Shading Calculation Update Frequency
  15000,                                  !- Maximum Figures in Shadow Overlap Calculations
  ,                                       !- Polygon Clipping Algorithm
  512,                                    !- Pixel Counting Resolution
  ,                                       !- Sky Diffuse Modeling Algorithm
  No,                                     !- Output External Shading Calculation Results
  No,                                     !- Disable Self-Shading Within Shading Zone Groups
  No;                                     !- Disable Self-Shading From Shading Zone Groups to Other Zones

OS:Surface,
  {60fffe8d-e21f-43c1-9f06-30986f76ee3e}, !- Handle
  attic-floor-dinning,                    !- Name
  Floor,                                  !- Surface Type
  ,                                       !- Construction Name
  {a6d9b45b-2723-43c6-8355-1e3d52bed681}, !- Space Name
  Surface,                                !- Outside Boundary Condition
  {ff63dcc8-88a6-4e75-a736-a16ea7374519}, !- Outside Boundary Condition Object
  NoSun,                                  !- Sun Exposure
  NoWind,                                 !- Wind Exposure
  ,                                       !- View Factor to Ground
  ,                                       !- Number of Vertices
  22.6087, 16.4427, 0,                    !- X,Y,Z Vertex 1 {m}
  22.6087, 0, 0,                          !- X,Y,Z Vertex 2 {m}
  0, 0, 0,                                !- X,Y,Z Vertex 3 {m}
  0, 16.4427, 0;                          !- X,Y,Z Vertex 4 {m}

OS:Surface,
  {99a3fb5b-eea2-4c47-b391-cc45f8583bd0}, !- Handle
  attic-floor-kitchen,                    !- Name
  Floor,                                  !- Surface Type
  ,                                       !- Construction Name
  {a6d9b45b-2723-43c6-8355-1e3d52bed681}, !- Space Name
  Surface,                                !- Outside Boundary Condition
  {f92df46b-44ed-4bc4-a65b-b4687c727c14}, !- Outside Boundary Condition Object
  NoSun,                                  !- Sun Exposure
  NoWind,                                 !- Wind Exposure
  ,                                       !- View Factor to Ground
  ,                                       !- Number of Vertices
  22.6087, 22.6087, 0,                    !- X,Y,Z Vertex 1 {m}
  22.6087, 16.4427, 0,                    !- X,Y,Z Vertex 2 {m}
  0, 16.4427, 0,                          !- X,Y,Z Vertex 3 {m}
  0, 22.6087, 0;                          !- X,Y,Z Vertex 4 {m}

OS:Surface,
  {f5f1a811-415b-4d09-b2da-ccbe1f40d3a2}, !- Handle
  Kitchen_Floor,                          !- Name
  Floor,                                  !- Surface Type
  {e955566d-1f16-4a12-aa83-c3520180ae24}, !- Construction Name
  {77d3cfbe-7d30-4aaf-86db-75976a798830}, !- Space Name
  Foundation,                             !- Outside Boundary Condition
  {470a4fb5-cfa2-4613-aedd-916cf8a7ed80}, !- Outside Boundary Condition Object
  NoSun,                                  !- Sun Exposure
  NoWind,                                 !- Wind Exposure
  ,                                       !- View Factor to Ground
  ,                                       !- Number of Vertices
  22.6087, 22.6087, 0,                    !- X,Y,Z Vertex 1 {m}
  22.6087, 16.4427, 0,                    !- X,Y,Z Vertex 2 {m}
  0, 16.4427, 0,                          !- X,Y,Z Vertex 3 {m}
  0, 22.6087, 0;                          !- X,Y,Z Vertex 4 {m}

OS:RunPeriod,
  {3c4ccfb1-e715-4662-9c52-be1b0a138576}, !- Handle
  Run Period 1,                           !- Name
  1,                                      !- Begin Month
  1,                                      !- Begin Day of Month
  12,                                     !- End Month
  31,                                     !- End Day of Month
  No,                                     !- Use Weather File Holidays and Special Days
  No,                                     !- Use Weather File Daylight Saving Period
  No,                                     !- Apply Weekend Holiday Rule
  Yes,                                    !- Use Weather File Rain Indicators
  Yes,                                    !- Use Weather File Snow Indicators
  1;                                      !- Number of Times Runperiod to be Repeated

OS:YearDescription,
  {7190988a-56b7-49e4-be5c-e6199b78fff0}, !- Handle
  ,                                       !- Calendar Year
  Sunday;                                 !- Day of Week for Start Day

OS:HeatBalanceAlgorithm,
  {64382367-5719-4453-8c29-e1a70cef6d9c}, !- Handle
  ConductionTransferFunction,             !- Algorithm
  200;                                    !- Surface Temperature Upper Limit {C}

OS:Surface,
  {1bf4d799-b7fc-481e-b40e-29c78d189519}, !- Handle
  Dining_Wall_North,                      !- Name
  Wall,                                   !- Surface Type
  ,                                       !- Construction Name
  {d48cb50c-3a07-4ed6-baac-fe451a3f5495}, !- Space Name
  Surface,                                !- Outside Boundary Condition
  {18d25d92-d723-4017-980c-f20184bc1dd2}, !- Outside Boundary Condition Object
  NoSun,                                  !- Sun Exposure
  NoWind,                                 !- Wind Exposure
  ,                                       !- View Factor to Ground
  ,                                       !- Number of Vertices
  22.6087, 16.4427, 3.0488,               !- X,Y,Z Vertex 1 {m}
  22.6087, 16.4427, 0,                    !- X,Y,Z Vertex 2 {m}
  0, 16.4427, 0,                          !- X,Y,Z Vertex 3 {m}
  0, 16.4427, 3.0488;                     !- X,Y,Z Vertex 4 {m}

OS:Output:Meter,
  {691ea4a2-e815-4852-aa14-ac1ce9bfcf5c}, !- Handle
  NaturalGas:Facility,                    !- Name
  Hourly,                                 !- Reporting Frequency
  True,                                   !- Meter File Only
  False;                                  !- Cumulative

OS:ConvergenceLimits,
  {a71a34c7-4772-4b25-9024-f2d758143793}, !- Handle
  1,                                      !- Minimum System Timestep {minutes}
  20;                                     !- Maximum HVAC Iterations

OS:Output:Meter,
  {ceae7f14-5ab7-4a91-9729-89b3f9655715}, !- Handle
  Electricity:Facility,                   !- Name
  Hourly,                                 !- Reporting Frequency
  True,                                   !- Meter File Only
  False;                                  !- Cumulative

OS:Surface,
  {c948d197-ce91-4318-a26c-8d47d0d034ce}, !- Handle
  Kitchen_Wall_East,                      !- Name
  Wall,                                   !- Surface Type
  ,                                       !- Construction Name
  {77d3cfbe-7d30-4aaf-86db-75976a798830}, !- Space Name
  Outdoors,                               !- Outside Boundary Condition
  ,                                       !- Outside Boundary Condition Object
  SunExposed,                             !- Sun Exposure
  WindExposed,                            !- Wind Exposure
  ,                                       !- View Factor to Ground
  ,                                       !- Number of Vertices
  22.6087, 16.4427, 3.0488,               !- X,Y,Z Vertex 1 {m}
  22.6087, 16.4427, 0,                    !- X,Y,Z Vertex 2 {m}
  22.6087, 22.6087, 0,                    !- X,Y,Z Vertex 3 {m}
  22.6087, 22.6087, 3.0488;               !- X,Y,Z Vertex 4 {m}

OS:Building,
  {57a0612b-80fa-4a4f-8704-b192e6d39f92}, !- Handle
  FullServiceRestaurant,                  !- Name
  ,                                       !- Building Sector Type
  0,                                      !- North Axis {deg}
  ,                                       !- Nominal Floor to Floor Height {m}
  ,                                       !- Space Type Name
  {e8baa73c-d597-4c41-b6f6-b349ec0f2c15}, !- Default Construction Set Name
  ,                                       !- Default Schedule Set Name
  1,                                      !- Standards Number of Stories
  1,                                      !- Standards Number of Above Ground Stories
  NECB2011,                               !- Standards Template
  FullServiceRestaurant;                  !- Standards Building Type

OS:Surface,
  {2634f8db-e6bf-4750-b638-5aac0aaf0b7c}, !- Handle
  east-roof,                              !- Name
  RoofCeiling,                            !- Surface Type
  ,                                       !- Construction Name
  {a6d9b45b-2723-43c6-8355-1e3d52bed681}, !- Space Name
  Outdoors,                               !- Outside Boundary Condition
  ,                                       !- Outside Boundary Condition Object
  SunExposed,                             !- Sun Exposure
  WindExposed,                            !- Wind Exposure
  ,                                       !- View Factor to Ground
  ,                                       !- Number of Vertices
  11.3044, 3.769, 3.7692,                 !- X,Y,Z Vertex 1 {m}
  22.6087, 0, 0,                          !- X,Y,Z Vertex 2 {m}
  22.6087, 22.6087, 0,                    !- X,Y,Z Vertex 3 {m}
  11.3044, 18.8397, 3.7692;               !- X,Y,Z Vertex 4 {m}

OS:Facility,
  {8630d1c8-2694-4622-ac46-ec75f253c7ea}; !- Handle

OS:BuildingStory,
  {28f49d8d-3737-4296-b4ec-3bf67b00f788}, !- Handle
  Building Story 1,                       !- Name
  0,                                      !- Nominal Z Coordinate {m}
  ,                                       !- Nominal Floor to Floor Height {m}
  ,                                       !- Default Construction Set Name
  ,                                       !- Default Schedule Set Name
  ;                                       !- Group Rendering Name

OS:BuildingStory,
  {f0fd8038-c2dd-4caa-93ad-11e3bdfa35ec}, !- Handle
  Building Story 2,                       !- Name
  3.0488,                                 !- Nominal Z Coordinate {m}
  ,                                       !- Nominal Floor to Floor Height {m}
  ,                                       !- Default Construction Set Name
  ,                                       !- Default Schedule Set Name
  ;                                       !- Group Rendering Name

OS:WeatherFile,
  {591e076f-b1ff-4f98-9dd0-4f1873bc12ec}, !- Handle
  Calgary Intl AP,                        !- City
  AB,                                     !- State Province Region
  CAN,                                    !- Country
  CWEC2020,                               !- Data Source
  718770,                                 !- WMO Number
  51.11,                                  !- Latitude {deg}
  -114.02,                                !- Longitude {deg}
  -7,                                     !- Time Zone {hr}
  1084.1,                                 !- Elevation {m}
  /home/osdev/openstudio-standards/data/weather/CAN_AB_Calgary.Intl.AP.718770_CWEC2020.epw, !- Url
  1F2D03BB,                               !- Checksum
  ,                                       !- Start Date Actual Year
  Sunday;                                 !- Start Day of Week

OS:Site:WaterMainsTemperature,
  {d4488da0-43af-4769-8758-7b0d3a753888}, !- Handle
  Correlation,                            !- Calculation Method
  ,                                       !- Temperature Schedule Name
  4.69166666666667,                       !- Annual Average Outdoor Air Temperature {C}
  24.6;                                   !- Maximum Difference In Monthly Average Outdoor Air Temperatures {deltaC}

OS:Site:GroundTemperature:BuildingSurface,
  {e1936907-687d-474b-be93-754a3a0b3ae4}, !- Handle
  19.527,                                 !- January Ground Temperature {C}
  19.502,                                 !- February Ground Temperature {C}
  19.536,                                 !- March Ground Temperature {C}
  19.598,                                 !- April Ground Temperature {C}
  20.002,                                 !- May Ground Temperature {C}
  21.64,                                  !- June Ground Temperature {C}
  22.225,                                 !- July Ground Temperature {C}
  22.375,                                 !- August Ground Temperature {C}
  21.449,                                 !- September Ground Temperature {C}
  20.121,                                 !- October Ground Temperature {C}
  19.802,                                 !- November Ground Temperature {C}
  19.633;                                 !- December Ground Temperature {C}

OS:SpaceType,
  {73bc1497-600d-436a-a675-cd1456fcf9ac}, !- Handle
  Space Function - undefined -,           !- Name
  ,                                       !- Default Construction Set Name
  {f09b0f0f-5136-473a-a062-2e59a625a2d3}, !- Default Schedule Set Name
  {734f2bfe-4873-45b7-9c77-f3243a1e3723}, !- Group Rendering Name
  {ca7965d7-6afc-48ba-8aa9-5c94a152246f}, !- Design Specification Outdoor Air Object Name
  ,                                       !- Standards Template
  Space Function,                         !- Standards Building Type
  - undefined -;                          !- Standards Space Type

OS:Rendering:Color,
  {2d245aba-2197-4e89-8d94-0ab8b7d48165}, !- Handle
  Space Function - undefined -,           !- Name
  255,                                    !- Rendering Red Value
  255,                                    !- Rendering Green Value
  255;                                    !- Rendering Blue Value

OS:SpaceType,
  {74d79ecf-87d4-4cbb-ba37-86cfde5c20bb}, !- Handle
  Space Function Dining - family space,   !- Name
  ,                                       !- Default Construction Set Name
  {b9188973-3937-42c8-9aee-de79fd520ffa}, !- Default Schedule Set Name
  {35450132-dd3a-4d98-94f1-c37280ac9a77}, !- Group Rendering Name
  {01495ac1-0fb5-4787-8d90-86e8a5b03a59}, !- Design Specification Outdoor Air Object Name
  ,                                       !- Standards Template
  Space Function,                         !- Standards Building Type
  Dining - family space;                  !- Standards Space Type

OS:Rendering:Color,
  {7a9e8539-9cb5-4ca2-908b-238e9d319c5c}, !- Handle
  Space Function Dining - family space,   !- Name
  255,                                    !- Rendering Red Value
  255,                                    !- Rendering Green Value
  255;                                    !- Rendering Blue Value

OS:SpaceType,
  {f72f339a-7251-400d-abf7-c267ec6d3b23}, !- Handle
  Space Function Food preparation,        !- Name
  ,                                       !- Default Construction Set Name
  {5ab771e8-bc10-48d9-b45c-df7da5e93075}, !- Default Schedule Set Name
  {10da8d85-a311-4e87-b755-bf5f677ffaaf}, !- Group Rendering Name
  {91a5b0cd-578c-4bf8-a748-0ff70e1ac80f}, !- Design Specification Outdoor Air Object Name
  ,                                       !- Standards Template
  Space Function,                         !- Standards Building Type
  Food preparation;                       !- Standards Space Type

OS:Rendering:Color,
  {03141d71-f229-4289-b14b-a6ad922f5827}, !- Handle
  Space Function Food preparation,        !- Name
  255,                                    !- Rendering Red Value
  255,                                    !- Rendering Green Value
  255;                                    !- Rendering Blue Value

OS:SizingPeriod:DesignDay,
  {9ed99bc7-ed69-4d8a-8686-6d3288e6c1a9}, !- Handle
  Calgary Intl AP Ann Clg .4% Condns DB=>MWB, !- Name
  28.8,                                   !- Maximum Dry-Bulb Temperature {C}
  12.3,                                   !- Daily Dry-Bulb Temperature Range {deltaC}
  88961,                                  !- Barometric Pressure {Pa}
  4.5,                                    !- Wind Speed {m/s}
  160,                                    !- Wind Direction {deg}
  ,                                       !- Sky Clearness
  No,                                     !- Rain Indicator
  No,                                     !- Snow Indicator
  21,                                     !- Day of Month
  7,                                      !- Month
  SummerDesignDay,                        !- Day Type
  No,                                     !- Daylight Saving Time Indicator
  Wetbulb,                                !- Humidity Condition Type
  ,                                       !- Humidity Condition Day Schedule Name
  16,                                     !- Wetbulb or DewPoint at Maximum Dry-Bulb {C}
  ,                                       !- Humidity Ratio at Maximum Dry-Bulb {kgWater/kgDryAir}
  ,                                       !- Enthalpy at Maximum Dry-Bulb {J/kg}
  DefaultMultipliers,                     !- Dry-Bulb Temperature Range Modifier Type
  ,                                       !- Dry-Bulb Temperature Range Modifier Day Schedule Name
  ASHRAETau,                              !- Solar Model Indicator
  ,                                       !- Beam Solar Day Schedule Name
  ,                                       !- Diffuse Solar Day Schedule Name
  0.34,                                   !- ASHRAE Clear Sky Optical Depth for Beam Irradiance {dimensionless}
  2.419;                                  !- ASHRAE Clear Sky Optical Depth for Diffuse Irradiance {dimensionless}

OS:SizingPeriod:DesignDay,
  {4f3ee186-34a6-4eff-89bf-2396ecba85ef}, !- Handle
  Calgary Intl AP Ann Clg .4% Condns WB=>MDB, !- Name
  25.5,                                   !- Maximum Dry-Bulb Temperature {C}
  12.3,                                   !- Daily Dry-Bulb Temperature Range {deltaC}
  88961,                                  !- Barometric Pressure {Pa}
  4.5,                                    !- Wind Speed {m/s}
  160,                                    !- Wind Direction {deg}
  ,                                       !- Sky Clearness
  No,                                     !- Rain Indicator
  No,                                     !- Snow Indicator
  21,                                     !- Day of Month
  7,                                      !- Month
  SummerDesignDay,                        !- Day Type
  No,                                     !- Daylight Saving Time Indicator
  Wetbulb,                                !- Humidity Condition Type
  ,                                       !- Humidity Condition Day Schedule Name
  17.8,                                   !- Wetbulb or DewPoint at Maximum Dry-Bulb {C}
  ,                                       !- Humidity Ratio at Maximum Dry-Bulb {kgWater/kgDryAir}
  ,                                       !- Enthalpy at Maximum Dry-Bulb {J/kg}
  DefaultMultipliers,                     !- Dry-Bulb Temperature Range Modifier Type
  ,                                       !- Dry-Bulb Temperature Range Modifier Day Schedule Name
  ASHRAETau,                              !- Solar Model Indicator
  ,                                       !- Beam Solar Day Schedule Name
  ,                                       !- Diffuse Solar Day Schedule Name
  0.34,                                   !- ASHRAE Clear Sky Optical Depth for Beam Irradiance {dimensionless}
  2.419;                                  !- ASHRAE Clear Sky Optical Depth for Diffuse Irradiance {dimensionless}

OS:SizingPeriod:DesignDay,
  {4f41bea7-c826-45aa-9651-2da46716ef19}, !- Handle
  Calgary Intl AP Ann Htg 99.6% Condns DB, !- Name
  -27.7,                                  !- Maximum Dry-Bulb Temperature {C}
  0,                                      !- Daily Dry-Bulb Temperature Range {deltaC}
  88961,                                  !- Barometric Pressure {Pa}
  2.7,                                    !- Wind Speed {m/s}
  200,                                    !- Wind Direction {deg}
  0,                                      !- Sky Clearness
  No,                                     !- Rain Indicator
  No,                                     !- Snow Indicator
  21,                                     !- Day of Month
  1,                                      !- Month
  WinterDesignDay,                        !- Day Type
  No,                                     !- Daylight Saving Time Indicator
  Wetbulb,                                !- Humidity Condition Type
  ,                                       !- Humidity Condition Day Schedule Name
  -27.7,                                  !- Wetbulb or DewPoint at Maximum Dry-Bulb {C}
  ,                                       !- Humidity Ratio at Maximum Dry-Bulb {kgWater/kgDryAir}
  ,                                       !- Enthalpy at Maximum Dry-Bulb {J/kg}
  DefaultMultipliers,                     !- Dry-Bulb Temperature Range Modifier Type
  ,                                       !- Dry-Bulb Temperature Range Modifier Day Schedule Name
  ASHRAEClearSky;                         !- Solar Model Indicator

OS:ClimateZones,
  {8c8cec22-cf14-46e3-a4ba-ec798e1e3444}, !- Handle
  ASHRAE,                                 !- Climate Zone Institution Name 1
  ANSI/ASHRAE Standard 169,               !- Climate Zone Document Name 1
  2006,                                   !- Climate Zone Document Year 1
  7;                                      !- Climate Zone Value 1

OS:Site:GroundTemperature:Shallow,
  {b5eeab96-354b-418b-bc09-4ace24f7f076}, !- Handle
  -1.6,                                   !- January Surface Ground Temperature {C}
  -5.4,                                   !- February Surface Ground Temperature {C}
  -6.4,                                   !- March Surface Ground Temperature {C}
  -5.5,                                   !- April Surface Ground Temperature {C}
  -0.4,                                   !- May Surface Ground Temperature {C}
  5.3,                                    !- June Surface Ground Temperature {C}
  10.8,                                   !- July Surface Ground Temperature {C}
  14.7,                                   !- August Surface Ground Temperature {C}
  15.8,                                   !- September Surface Ground Temperature {C}
  14,                                     !- October Surface Ground Temperature {C}
  9.5,                                    !- November Surface Ground Temperature {C}
  4;                                      !- December Surface Ground Temperature {C}

OS:Site:GroundTemperature:Deep,
  {7230af91-f35d-4278-88bd-b82d3322705f}, !- Handle
  4,                                      !- January Deep Ground Temperature {C}
  1.3,                                    !- February Deep Ground Temperature {C}
  -0.4,                                   !- March Deep Ground Temperature {C}
  -0.9,                                   !- April Deep Ground Temperature {C}
  0.1,                                    !- May Deep Ground Temperature {C}
  2.3,                                    !- June Deep Ground Temperature {C}
  5.2,                                    !- July Deep Ground Temperature {C}
  8,                                      !- August Deep Ground Temperature {C}
  9.9,                                    !- September Deep Ground Temperature {C}
  10.3,                                   !- October Deep Ground Temperature {C}
  9.2,                                    !- November Deep Ground Temperature {C}
  7;                                      !- December Deep Ground Temperature {C}

OS:Site:GroundTemperature:FCfactorMethod,
  {c7653b47-63c4-4a69-954e-2b9e756223f2}, !- Handle
  5.5,                                    !- January Ground Temperature {C}
  -2,                                     !- February Ground Temperature {C}
  -7.6,                                   !- March Ground Temperature {C}
  -6.3,                                   !- April Ground Temperature {C}
  -6.6,                                   !- May Ground Temperature {C}
  -0.3,                                   !- June Ground Temperature {C}
  4.9,                                    !- July Ground Temperature {C}
  10.2,                                   !- August Ground Temperature {C}
  13.8,                                   !- September Ground Temperature {C}
  17,                                     !- October Ground Temperature {C}
  16.6,                                   !- November Ground Temperature {C}
  11.1;                                   !- December Ground Temperature {C}

OS:AdditionalProperties,
  {84fb8635-7f27-411a-8537-d72e6cbff8ee}, !- Handle
  {a6d9b45b-2723-43c6-8355-1e3d52bed681}, !- Object Name
  space_conditioning_category,            !- Feature Name 1
  String,                                 !- Feature Data Type 1
  unconditioned;                          !- Feature Value 1

OS:AdditionalProperties,
  {6c68a318-dd48-42cf-890f-fcded2b26b5e}, !- Handle
  {d48cb50c-3a07-4ed6-baac-fe451a3f5495}, !- Object Name
  space_conditioning_category,            !- Feature Name 1
  String,                                 !- Feature Data Type 1
  nonresconditioned;                      !- Feature Value 1

OS:AdditionalProperties,
  {bf59ae9c-3faf-4883-ba5f-ed0350f1c99e}, !- Handle
  {77d3cfbe-7d30-4aaf-86db-75976a798830}, !- Object Name
  space_conditioning_category,            !- Feature Name 1
  String,                                 !- Feature Data Type 1
  nonresconditioned;                      !- Feature Value 1

OS:AdditionalProperties,
  {c6411653-a965-44d9-8468-9efb6deb7980}, !- Handle
  {57a0612b-80fa-4a4f-8704-b192e6d39f92}; !- Object Name

OS:Rendering:Color,
  {d3385752-2d54-4f10-9b25-5960d041cb99}, !- Handle
  Space Function - undefined - 1,         !- Name
  255,                                    !- Rendering Red Value
  255,                                    !- Rendering Green Value
  255;                                    !- Rendering Blue Value

OS:DesignSpecification:OutdoorAir,
  {ca7965d7-6afc-48ba-8aa9-5c94a152246f}, !- Handle
  Space Function - undefined - Ventilation, !- Name
  ,                                       !- Outdoor Air Method
  0,                                      !- Outdoor Air Flow per Person {m3/s-person}
  0,                                      !- Outdoor Air Flow per Floor Area {m3/s-m2}
  ,                                       !- Outdoor Air Flow Rate {m3/s}
  0,                                      !- Outdoor Air Flow Air Changes per Hour {1/hr}
  ;                                       !- Outdoor Air Flow Rate Fraction Schedule Name

OS:DefaultScheduleSet,
  {f09b0f0f-5136-473a-a062-2e59a625a2d3}, !- Handle
  Space Function - undefined - Schedule Set, !- Name
  ,                                       !- Hours of Operation Schedule Name
  ,                                       !- Number of People Schedule Name
  ,                                       !- People Activity Level Schedule Name
  ,                                       !- Lighting Schedule Name
  ,                                       !- Electric Equipment Schedule Name
  ,                                       !- Gas Equipment Schedule Name
  ,                                       !- Hot Water Equipment Schedule Name
  ,                                       !- Infiltration Schedule Name
  ,                                       !- Steam Equipment Schedule Name
  ;                                       !- Other Equipment Schedule Name

OS:ThermostatSetpoint:DualSetpoint,
  {d3fdc315-7290-4d57-a491-fdfb7c7a18c8}, !- Handle
  Space Function - undefined - Thermostat; !- Name

OS:Rendering:Color,
  {e32c26e0-7346-42fa-a829-eef27067b599}, !- Handle
  Space Function Dining - family space 1, !- Name
  255,                                    !- Rendering Red Value
  255,                                    !- Rendering Green Value
  255;                                    !- Rendering Blue Value

OS:People:Definition,
  {93c3a003-6e33-4e23-a677-cd13d875caa6}, !- Handle
  Space Function Dining - family space People Definition, !- Name
  People/Area,                            !- Number of People Calculation Method
  ,                                       !- Number of People {people}
  0.0999967277712333,                     !- People per Space Floor Area {person/m2}
  ,                                       !- Space Floor Area per Person {m2/person}
  0.3;                                    !- Fraction Radiant

OS:People,
  {50b1d642-6e41-43a9-bc87-b506996cd0ef}, !- Handle
  Space Function Dining - family space People, !- Name
  {93c3a003-6e33-4e23-a677-cd13d875caa6}, !- People Definition Name
  {74d79ecf-87d4-4cbb-ba37-86cfde5c20bb}, !- Space or SpaceType Name
  ,                                       !- Number of People Schedule Name
  ,                                       !- Activity Level Schedule Name
  ,                                       !- Surface Name/Angle Factor List Name
  {404b8aa5-41c8-49c6-9f04-65e92581c313}, !- Work Efficiency Schedule Name
  {53e1989d-342e-45f2-9275-264a37375e93}, !- Clothing Insulation Schedule Name
  {ca33533e-991f-45f3-93cb-8be53adb1da8}, !- Air Velocity Schedule Name
  1;                                      !- Multiplier

OS:Schedule:Ruleset,
  {53e1989d-342e-45f2-9275-264a37375e93}, !- Handle
  Clothing Schedule,                      !- Name
  {7b1962f3-e66f-4846-b9ef-12caccf6e9d1}, !- Schedule Type Limits Name
  {0d71f44a-6844-4a9e-a97e-57ee82e0cfad}; !- Default Day Schedule Name

OS:Schedule:Day,
  {0d71f44a-6844-4a9e-a97e-57ee82e0cfad}, !- Handle
  Clothing Schedule Default Winter Clothes, !- Name
  {7b1962f3-e66f-4846-b9ef-12caccf6e9d1}, !- Schedule Type Limits Name
  ,                                       !- Interpolate to Timestep
  24,                                     !- Hour 1
  0,                                      !- Minute 1
  1;                                      !- Value Until Time 1

OS:Schedule:Rule,
  {d435f3d4-9f98-4c3c-beb3-6d3bcc486be6}, !- Handle
  Schedule Rule 1,                        !- Name
  {53e1989d-342e-45f2-9275-264a37375e93}, !- Schedule Ruleset Name
  0,                                      !- Rule Order
  {7e2c4016-a7ac-4807-8e49-7ab1e97be537}, !- Day Schedule Name
  ,                                       !- Apply Sunday
  ,                                       !- Apply Monday
  ,                                       !- Apply Tuesday
  ,                                       !- Apply Wednesday
  ,                                       !- Apply Thursday
  ,                                       !- Apply Friday
  ,                                       !- Apply Saturday
  DateRange,                              !- Date Specification Type
  5,                                      !- Start Month
  1,                                      !- Start Day
  9,                                      !- End Month
  30;                                     !- End Day

OS:Schedule:Day,
  {7e2c4016-a7ac-4807-8e49-7ab1e97be537}, !- Handle
  Clothing Schedule Summer Clothes,       !- Name
  {7b1962f3-e66f-4846-b9ef-12caccf6e9d1}, !- Schedule Type Limits Name
  ,                                       !- Interpolate to Timestep
  24,                                     !- Hour 1
  0,                                      !- Minute 1
  0.5;                                    !- Value Until Time 1

OS:ScheduleTypeLimits,
  {7b1962f3-e66f-4846-b9ef-12caccf6e9d1}, !- Handle
  ClothingInsulation,                     !- Name
  0,                                      !- Lower Limit Value
  ,                                       !- Upper Limit Value
  Continuous,                             !- Numeric Type
  ClothingInsulation;                     !- Unit Type

OS:Schedule:Ruleset,
  {ca33533e-991f-45f3-93cb-8be53adb1da8}, !- Handle
  Air Velocity Schedule,                  !- Name
  {70496712-418f-43f3-9964-84d120f002ba}, !- Schedule Type Limits Name
  {7cd6968a-f52d-4995-98c0-d3878c70ca9d}; !- Default Day Schedule Name

OS:Schedule:Day,
  {7cd6968a-f52d-4995-98c0-d3878c70ca9d}, !- Handle
  Air Velocity Schedule Default,          !- Name
  {70496712-418f-43f3-9964-84d120f002ba}, !- Schedule Type Limits Name
  ,                                       !- Interpolate to Timestep
  24,                                     !- Hour 1
  0,                                      !- Minute 1
  0.2;                                    !- Value Until Time 1

OS:ScheduleTypeLimits,
  {70496712-418f-43f3-9964-84d120f002ba}, !- Handle
  Velocity,                               !- Name
  0,                                      !- Lower Limit Value
  ,                                       !- Upper Limit Value
  Continuous,                             !- Numeric Type
  Velocity;                               !- Unit Type

OS:Schedule:Ruleset,
  {404b8aa5-41c8-49c6-9f04-65e92581c313}, !- Handle
  Work Efficiency Schedule,               !- Name
  {8f9f8be4-3e2d-4979-ab83-87f89fdc8ba8}, !- Schedule Type Limits Name
  {07f15b8e-422f-402e-941e-0ba893eabed6}; !- Default Day Schedule Name

OS:Schedule:Day,
  {07f15b8e-422f-402e-941e-0ba893eabed6}, !- Handle
  Work Efficiency Schedule Default,       !- Name
  {8f9f8be4-3e2d-4979-ab83-87f89fdc8ba8}, !- Schedule Type Limits Name
  ,                                       !- Interpolate to Timestep
  24,                                     !- Hour 1
  0,                                      !- Minute 1
  0;                                      !- Value Until Time 1

OS:ScheduleTypeLimits,
  {8f9f8be4-3e2d-4979-ab83-87f89fdc8ba8}, !- Handle
  Fractional,                             !- Name
  0,                                      !- Lower Limit Value
  1,                                      !- Upper Limit Value
  Continuous;                             !- Numeric Type

OS:Lights:Definition,
  {7e3c49af-fafd-400e-a5fc-326eb20004e0}, !- Handle
  Space Function Dining - family space Lights Definition, !- Name
  Watts/Area,                             !- Design Level Calculation Method
  ,                                       !- Lighting Level {W}
  9.59992009949298,                       !- Watts per Space Floor Area {W/m2}
  ,                                       !- Watts per Person {W/person}
  0.5,                                    !- Fraction Radiant
  0.2;                                    !- Fraction Visible

OS:Lights,
  {85701d89-d852-4ccf-b0e9-e6b20d084844}, !- Handle
  Space Function Dining - family space Lights, !- Name
  {7e3c49af-fafd-400e-a5fc-326eb20004e0}, !- Lights Definition Name
  {74d79ecf-87d4-4cbb-ba37-86cfde5c20bb}, !- Space or SpaceType Name
  ,                                       !- Schedule Name
  1,                                      !- Fraction Replaceable
  ,                                       !- Multiplier
  General;                                !- End-Use Subcategory

OS:ElectricEquipment:Definition,
  {727297f5-7814-4eb4-b81d-59517fa9822f}, !- Handle
  Space Function Dining - family space Elec Equip Definition, !- Name
  Watts/Area,                             !- Design Level Calculation Method
  ,                                       !- Design Level {W}
  0.999991679497248,                      !- Watts per Space Floor Area {W/m2}
  ,                                       !- Watts per Person {W/person}
  ,                                       !- Fraction Latent
  0.5;                                    !- Fraction Radiant

OS:ElectricEquipment,
  {5d55389a-88b8-452d-b58c-b621499082db}, !- Handle
  Space Function Dining - family space Elec Equip, !- Name
  {727297f5-7814-4eb4-b81d-59517fa9822f}, !- Electric Equipment Definition Name
  {74d79ecf-87d4-4cbb-ba37-86cfde5c20bb}, !- Space or SpaceType Name
  ,                                       !- Schedule Name
  ,                                       !- Multiplier
  General;                                !- End-Use Subcategory

OS:DesignSpecification:OutdoorAir,
  {01495ac1-0fb5-4787-8d90-86e8a5b03a59}, !- Handle
  Space Function Dining - family space Ventilation, !- Name
  Sum,                                    !- Outdoor Air Method
  0.071122327285253,                      !- Outdoor Air Flow per Person {m3/s-person}
  ,                                       !- Outdoor Air Flow per Floor Area {m3/s-m2}
  ,                                       !- Outdoor Air Flow Rate {m3/s}
  ,                                       !- Outdoor Air Flow Air Changes per Hour {1/hr}
  ;                                       !- Outdoor Air Flow Rate Fraction Schedule Name

OS:DefaultScheduleSet,
  {b9188973-3937-42c8-9aee-de79fd520ffa}, !- Handle
  Space Function Dining - family space Schedule Set, !- Name
  ,                                       !- Hours of Operation Schedule Name
  {470836b8-1acb-4228-9a68-d8d60defbf4c}, !- Number of People Schedule Name
  {eefa7ee7-388e-4af1-b921-77d8d850d013}, !- People Activity Level Schedule Name
  {3dafad2f-185d-4665-a6ec-c706d24251cb}, !- Lighting Schedule Name
  {b7c67343-e7a8-40fd-8e0d-9fb04920aed7}, !- Electric Equipment Schedule Name
  ,                                       !- Gas Equipment Schedule Name
  ,                                       !- Hot Water Equipment Schedule Name
  ,                                       !- Infiltration Schedule Name
  ,                                       !- Steam Equipment Schedule Name
  ;                                       !- Other Equipment Schedule Name

OS:Schedule:Ruleset,
  {470836b8-1acb-4228-9a68-d8d60defbf4c}, !- Handle
  NECB-B-Occupancy,                       !- Name
  {8f9f8be4-3e2d-4979-ab83-87f89fdc8ba8}, !- Schedule Type Limits Name
  {f1042abc-cf6b-4c81-b5ed-89056d8bb28f}; !- Default Day Schedule Name

OS:Schedule:Day,
  {f1042abc-cf6b-4c81-b5ed-89056d8bb28f}, !- Handle
  NECB-B-Occupancy Default,               !- Name
  {8f9f8be4-3e2d-4979-ab83-87f89fdc8ba8}, !- Schedule Type Limits Name
  No,                                     !- Interpolate to Timestep
  1,                                      !- Hour 1
  0,                                      !- Minute 1
  0.3,                                    !- Value Until Time 1
  2,                                      !- Hour 2
  0,                                      !- Minute 2
  0.1,                                    !- Value Until Time 2
  9,                                      !- Hour 3
  0,                                      !- Minute 3
  0,                                      !- Value Until Time 3
  10,                                     !- Hour 4
  0,                                      !- Minute 4
  0.1,                                    !- Value Until Time 4
  11,                                     !- Hour 5
  0,                                      !- Minute 5
  0.2,                                    !- Value Until Time 5
  12,                                     !- Hour 6
  0,                                      !- Minute 6
  0.5,                                    !- Value Until Time 6
  13,                                     !- Hour 7
  0,                                      !- Minute 7
  0.9,                                    !- Value Until Time 7
  14,                                     !- Hour 8
  0,                                      !- Minute 8
  0.8,                                    !- Value Until Time 8
  15,                                     !- Hour 9
  0,                                      !- Minute 9
  0.5,                                    !- Value Until Time 9
  17,                                     !- Hour 10
  0,                                      !- Minute 10
  0.2,                                    !- Value Until Time 10
  18,                                     !- Hour 11
  0,                                      !- Minute 11
  0.3,                                    !- Value Until Time 11
  19,                                     !- Hour 12
  0,                                      !- Minute 12
  0.6,                                    !- Value Until Time 12
  22,                                     !- Hour 13
  0,                                      !- Minute 13
  0.9,                                    !- Value Until Time 13
  23,                                     !- Hour 14
  0,                                      !- Minute 14
  0.6,                                    !- Value Until Time 14
  24,                                     !- Hour 15
  0,                                      !- Minute 15
  0.4;                                    !- Value Until Time 15

OS:Schedule:Rule,
  {1e162edf-9b05-4001-91ae-549c11e07727}, !- Handle
  Schedule Rule 2,                        !- Name
  {470836b8-1acb-4228-9a68-d8d60defbf4c}, !- Schedule Ruleset Name
  2,                                      !- Rule Order
  {32f15c64-479d-4c24-8942-66e5931788fe}, !- Day Schedule Name
  ,                                       !- Apply Sunday
  Yes,                                    !- Apply Monday
  Yes,                                    !- Apply Tuesday
  Yes,                                    !- Apply Wednesday
  Yes,                                    !- Apply Thursday
  Yes,                                    !- Apply Friday
  ,                                       !- Apply Saturday
  DateRange,                              !- Date Specification Type
  1,                                      !- Start Month
  1,                                      !- Start Day
  12,                                     !- End Month
  31;                                     !- End Day

OS:Schedule:Day,
  {32f15c64-479d-4c24-8942-66e5931788fe}, !- Handle
  NECB-B-Occupancy Default|Wkdy Day,      !- Name
  {8f9f8be4-3e2d-4979-ab83-87f89fdc8ba8}, !- Schedule Type Limits Name
  No,                                     !- Interpolate to Timestep
  1,                                      !- Hour 1
  0,                                      !- Minute 1
  0.3,                                    !- Value Until Time 1
  2,                                      !- Hour 2
  0,                                      !- Minute 2
  0.1,                                    !- Value Until Time 2
  9,                                      !- Hour 3
  0,                                      !- Minute 3
  0,                                      !- Value Until Time 3
  10,                                     !- Hour 4
  0,                                      !- Minute 4
  0.1,                                    !- Value Until Time 4
  11,                                     !- Hour 5
  0,                                      !- Minute 5
  0.2,                                    !- Value Until Time 5
  12,                                     !- Hour 6
  0,                                      !- Minute 6
  0.5,                                    !- Value Until Time 6
  13,                                     !- Hour 7
  0,                                      !- Minute 7
  0.9,                                    !- Value Until Time 7
  14,                                     !- Hour 8
  0,                                      !- Minute 8
  0.8,                                    !- Value Until Time 8
  15,                                     !- Hour 9
  0,                                      !- Minute 9
  0.5,                                    !- Value Until Time 9
  17,                                     !- Hour 10
  0,                                      !- Minute 10
  0.2,                                    !- Value Until Time 10
  18,                                     !- Hour 11
  0,                                      !- Minute 11
  0.3,                                    !- Value Until Time 11
  19,                                     !- Hour 12
  0,                                      !- Minute 12
  0.6,                                    !- Value Until Time 12
  22,                                     !- Hour 13
  0,                                      !- Minute 13
  0.9,                                    !- Value Until Time 13
  23,                                     !- Hour 14
  0,                                      !- Minute 14
  0.6,                                    !- Value Until Time 14
  24,                                     !- Hour 15
  0,                                      !- Minute 15
  0.4;                                    !- Value Until Time 15

OS:Schedule:Rule,
  {953100d1-8242-4441-b7a5-ea39628f651e}, !- Handle
  Schedule Rule 3,                        !- Name
  {470836b8-1acb-4228-9a68-d8d60defbf4c}, !- Schedule Ruleset Name
  1,                                      !- Rule Order
  {191f0de8-6e71-4bc6-819c-9261f56bae8e}, !- Day Schedule Name
  ,                                       !- Apply Sunday
  ,                                       !- Apply Monday
  ,                                       !- Apply Tuesday
  ,                                       !- Apply Wednesday
  ,                                       !- Apply Thursday
  ,                                       !- Apply Friday
  Yes,                                    !- Apply Saturday
  DateRange,                              !- Date Specification Type
  1,                                      !- Start Month
  1,                                      !- Start Day
  12,                                     !- End Month
  31;                                     !- End Day

OS:Schedule:Day,
  {191f0de8-6e71-4bc6-819c-9261f56bae8e}, !- Handle
  NECB-B-Occupancy Sat Day,               !- Name
  {8f9f8be4-3e2d-4979-ab83-87f89fdc8ba8}, !- Schedule Type Limits Name
  No,                                     !- Interpolate to Timestep
  1,                                      !- Hour 1
  0,                                      !- Minute 1
  0.5,                                    !- Value Until Time 1
  2,                                      !- Hour 2
  0,                                      !- Minute 2
  0.3,                                    !- Value Until Time 2
  9,                                      !- Hour 3
  0,                                      !- Minute 3
  0,                                      !- Value Until Time 3
  10,                                     !- Hour 4
  0,                                      !- Minute 4
  0.1,                                    !- Value Until Time 4
  11,                                     !- Hour 5
  0,                                      !- Minute 5
  0.2,                                    !- Value Until Time 5
  12,                                     !- Hour 6
  0,                                      !- Minute 6
  0.5,                                    !- Value Until Time 6
  13,                                     !- Hour 7
  0,                                      !- Minute 7
  0.9,                                    !- Value Until Time 7
  14,                                     !- Hour 8
  0,                                      !- Minute 8
  0.8,                                    !- Value Until Time 8
  15,                                     !- Hour 9
  0,                                      !- Minute 9
  0.5,                                    !- Value Until Time 9
  17,                                     !- Hour 10
  0,                                      !- Minute 10
  0.2,                                    !- Value Until Time 10
  18,                                     !- Hour 11
  0,                                      !- Minute 11
  0.3,                                    !- Value Until Time 11
  19,                                     !- Hour 12
  0,                                      !- Minute 12
  0.6,                                    !- Value Until Time 12
  22,                                     !- Hour 13
  0,                                      !- Minute 13
  0.9,                                    !- Value Until Time 13
  24,                                     !- Hour 14
  0,                                      !- Minute 14
  0.6;                                    !- Value Until Time 14

OS:Schedule:Rule,
  {10c0a822-7a4a-4dec-b02a-c53ae397cbc6}, !- Handle
  Schedule Rule 4,                        !- Name
  {470836b8-1acb-4228-9a68-d8d60defbf4c}, !- Schedule Ruleset Name
  0,                                      !- Rule Order
  {04b81104-544d-48f5-a78f-5c1ec1b14bbc}, !- Day Schedule Name
  Yes,                                    !- Apply Sunday
  ,                                       !- Apply Monday
  ,                                       !- Apply Tuesday
  ,                                       !- Apply Wednesday
  ,                                       !- Apply Thursday
  ,                                       !- Apply Friday
  ,                                       !- Apply Saturday
  DateRange,                              !- Date Specification Type
  1,                                      !- Start Month
  1,                                      !- Start Day
  12,                                     !- End Month
  31;                                     !- End Day

OS:Schedule:Day,
  {04b81104-544d-48f5-a78f-5c1ec1b14bbc}, !- Handle
  NECB-B-Occupancy Sun|Hol Day,           !- Name
  {8f9f8be4-3e2d-4979-ab83-87f89fdc8ba8}, !- Schedule Type Limits Name
  No,                                     !- Interpolate to Timestep
  1,                                      !- Hour 1
  0,                                      !- Minute 1
  0.1,                                    !- Value Until Time 1
  2,                                      !- Hour 2
  0,                                      !- Minute 2
  0.3,                                    !- Value Until Time 2
  10,                                     !- Hour 3
  0,                                      !- Minute 3
  0,                                      !- Value Until Time 3
  11,                                     !- Hour 4
  0,                                      !- Minute 4
  0.1,                                    !- Value Until Time 4
  12,                                     !- Hour 5
  0,                                      !- Minute 5
  0.4,                                    !- Value Until Time 5
  14,                                     !- Hour 6
  0,                                      !- Minute 6
  0.5,                                    !- Value Until Time 6
  15,                                     !- Hour 7
  0,                                      !- Minute 7
  0.4,                                    !- Value Until Time 7
  18,                                     !- Hour 8
  0,                                      !- Minute 8
  0.2,                                    !- Value Until Time 8
  19,                                     !- Hour 9
  0,                                      !- Minute 9
  0.5,                                    !- Value Until Time 9
  21,                                     !- Hour 10
  0,                                      !- Minute 10
  0.7,                                    !- Value Until Time 10
  22,                                     !- Hour 11
  0,                                      !- Minute 11
  0.5,                                    !- Value Until Time 11
  23,                                     !- Hour 12
  0,                                      !- Minute 12
  0.3,                                    !- Value Until Time 12
  24,                                     !- Hour 13
  0,                                      !- Minute 13
  0.1;                                    !- Value Until Time 13

OS:Schedule:Ruleset,
  {eefa7ee7-388e-4af1-b921-77d8d850d013}, !- Handle
  NECB-Activity,                          !- Name
  {6e29eff7-e4bb-4d83-bef5-1aecf50e1f86}, !- Schedule Type Limits Name
  {14621585-f0a0-45c4-8d7e-e5e9f7f1ed72}, !- Default Day Schedule Name
  {e4d2fb1d-d450-44a1-951d-9a2310ef27a9}, !- Summer Design Day Schedule Name
  {0739e74a-cffd-449c-91bd-058edb9850ac}; !- Winter Design Day Schedule Name

OS:Schedule:Day,
  {14621585-f0a0-45c4-8d7e-e5e9f7f1ed72}, !- Handle
  NECB-Activity Default,                  !- Name
  {6e29eff7-e4bb-4d83-bef5-1aecf50e1f86}, !- Schedule Type Limits Name
  No,                                     !- Interpolate to Timestep
  24,                                     !- Hour 1
  0,                                      !- Minute 1
  130;                                    !- Value Until Time 1

OS:Schedule:Day,
  {277f3364-ee69-45e9-928d-5f37530d7249}, !- Handle
  Schedule Day 1,                         !- Name
  ,                                       !- Schedule Type Limits Name
  ,                                       !- Interpolate to Timestep
  24,                                     !- Hour 1
  0,                                      !- Minute 1
  0;                                      !- Value Until Time 1

OS:Schedule:Day,
  {0739e74a-cffd-449c-91bd-058edb9850ac}, !- Handle
  NECB-Activity Winter Design Day,        !- Name
  {6e29eff7-e4bb-4d83-bef5-1aecf50e1f86}, !- Schedule Type Limits Name
  No,                                     !- Interpolate to Timestep
  24,                                     !- Hour 1
  0,                                      !- Minute 1
  130;                                    !- Value Until Time 1

OS:Schedule:Day,
  {51124504-5aa7-47a6-93e5-15fcb81ed0c1}, !- Handle
  Schedule Day 2,                         !- Name
  ,                                       !- Schedule Type Limits Name
  ,                                       !- Interpolate to Timestep
  24,                                     !- Hour 1
  0,                                      !- Minute 1
  0;                                      !- Value Until Time 1

OS:Schedule:Day,
  {e4d2fb1d-d450-44a1-951d-9a2310ef27a9}, !- Handle
  NECB-Activity Summer Design Day,        !- Name
  {6e29eff7-e4bb-4d83-bef5-1aecf50e1f86}, !- Schedule Type Limits Name
  No,                                     !- Interpolate to Timestep
  24,                                     !- Hour 1
  0,                                      !- Minute 1
  130;                                    !- Value Until Time 1

OS:ScheduleTypeLimits,
  {6e29eff7-e4bb-4d83-bef5-1aecf50e1f86}, !- Handle
  ActivityLevel,                          !- Name
  0,                                      !- Lower Limit Value
  ,                                       !- Upper Limit Value
  Continuous,                             !- Numeric Type
  ActivityLevel;                          !- Unit Type

OS:Schedule:Ruleset,
  {3dafad2f-185d-4665-a6ec-c706d24251cb}, !- Handle
  NECB-B-Lighting,                        !- Name
  {8f9f8be4-3e2d-4979-ab83-87f89fdc8ba8}, !- Schedule Type Limits Name
  {110e48a4-ab98-41ce-9f91-a819ca1aab3a}; !- Default Day Schedule Name

OS:Schedule:Day,
  {110e48a4-ab98-41ce-9f91-a819ca1aab3a}, !- Handle
  NECB-B-Lighting Default,                !- Name
  {8f9f8be4-3e2d-4979-ab83-87f89fdc8ba8}, !- Schedule Type Limits Name
  No,                                     !- Interpolate to Timestep
  1,                                      !- Hour 1
  0,                                      !- Minute 1
  0.9,                                    !- Value Until Time 1
  2,                                      !- Hour 2
  0,                                      !- Minute 2
  0.5,                                    !- Value Until Time 2
  9,                                      !- Hour 3
  0,                                      !- Minute 3
  0.1,                                    !- Value Until Time 3
  10,                                     !- Hour 4
  0,                                      !- Minute 4
  0.5,                                    !- Value Until Time 4
  11,                                     !- Hour 5
  0,                                      !- Minute 5
  0.7,                                    !- Value Until Time 5
  24,                                     !- Hour 6
  0,                                      !- Minute 6
  0.9;                                    !- Value Until Time 6

OS:Schedule:Rule,
  {f6f27b7c-2894-4273-9237-630d95f50d24}, !- Handle
  Schedule Rule 5,                        !- Name
  {3dafad2f-185d-4665-a6ec-c706d24251cb}, !- Schedule Ruleset Name
  2,                                      !- Rule Order
  {a39a18ba-9263-4307-b377-8405b9515711}, !- Day Schedule Name
  ,                                       !- Apply Sunday
  Yes,                                    !- Apply Monday
  Yes,                                    !- Apply Tuesday
  Yes,                                    !- Apply Wednesday
  Yes,                                    !- Apply Thursday
  Yes,                                    !- Apply Friday
  ,                                       !- Apply Saturday
  DateRange,                              !- Date Specification Type
  1,                                      !- Start Month
  1,                                      !- Start Day
  12,                                     !- End Month
  31;                                     !- End Day

OS:Schedule:Day,
  {a39a18ba-9263-4307-b377-8405b9515711}, !- Handle
  NECB-B-Lighting Default|Wkdy Day,       !- Name
  {8f9f8be4-3e2d-4979-ab83-87f89fdc8ba8}, !- Schedule Type Limits Name
  No,                                     !- Interpolate to Timestep
  1,                                      !- Hour 1
  0,                                      !- Minute 1
  0.9,                                    !- Value Until Time 1
  2,                                      !- Hour 2
  0,                                      !- Minute 2
  0.5,                                    !- Value Until Time 2
  9,                                      !- Hour 3
  0,                                      !- Minute 3
  0.1,                                    !- Value Until Time 3
  10,                                     !- Hour 4
  0,                                      !- Minute 4
  0.5,                                    !- Value Until Time 4
  11,                                     !- Hour 5
  0,                                      !- Minute 5
  0.7,                                    !- Value Until Time 5
  24,                                     !- Hour 6
  0,                                      !- Minute 6
  0.9;                                    !- Value Until Time 6

OS:Schedule:Rule,
  {04e1da6d-cce3-4b6c-85f6-f9bc229fdacb}, !- Handle
  Schedule Rule 6,                        !- Name
  {3dafad2f-185d-4665-a6ec-c706d24251cb}, !- Schedule Ruleset Name
  1,                                      !- Rule Order
  {8e43adc4-5e22-43aa-8dfa-09626c7926d5}, !- Day Schedule Name
  ,                                       !- Apply Sunday
  ,                                       !- Apply Monday
  ,                                       !- Apply Tuesday
  ,                                       !- Apply Wednesday
  ,                                       !- Apply Thursday
  ,                                       !- Apply Friday
  Yes,                                    !- Apply Saturday
  DateRange,                              !- Date Specification Type
  1,                                      !- Start Month
  1,                                      !- Start Day
  12,                                     !- End Month
  31;                                     !- End Day

OS:Schedule:Day,
  {8e43adc4-5e22-43aa-8dfa-09626c7926d5}, !- Handle
  NECB-B-Lighting Sat Day,                !- Name
  {8f9f8be4-3e2d-4979-ab83-87f89fdc8ba8}, !- Schedule Type Limits Name
  No,                                     !- Interpolate to Timestep
  1,                                      !- Hour 1
  0,                                      !- Minute 1
  0.9,                                    !- Value Until Time 1
  2,                                      !- Hour 2
  0,                                      !- Minute 2
  0.5,                                    !- Value Until Time 2
  9,                                      !- Hour 3
  0,                                      !- Minute 3
  0.1,                                    !- Value Until Time 3
  10,                                     !- Hour 4
  0,                                      !- Minute 4
  0.5,                                    !- Value Until Time 4
  11,                                     !- Hour 5
  0,                                      !- Minute 5
  0.7,                                    !- Value Until Time 5
  24,                                     !- Hour 6
  0,                                      !- Minute 6
  0.9;                                    !- Value Until Time 6

OS:Schedule:Rule,
  {b56ad6de-2af6-4b1d-9781-c67bc45339c5}, !- Handle
  Schedule Rule 7,                        !- Name
  {3dafad2f-185d-4665-a6ec-c706d24251cb}, !- Schedule Ruleset Name
  0,                                      !- Rule Order
  {24c34315-2081-44f2-ac78-d10051e67e1b}, !- Day Schedule Name
  Yes,                                    !- Apply Sunday
  ,                                       !- Apply Monday
  ,                                       !- Apply Tuesday
  ,                                       !- Apply Wednesday
  ,                                       !- Apply Thursday
  ,                                       !- Apply Friday
  ,                                       !- Apply Saturday
  DateRange,                              !- Date Specification Type
  1,                                      !- Start Month
  1,                                      !- Start Day
  12,                                     !- End Month
  31;                                     !- End Day

OS:Schedule:Day,
  {24c34315-2081-44f2-ac78-d10051e67e1b}, !- Handle
  NECB-B-Lighting Sun|Hol Day,            !- Name
  {8f9f8be4-3e2d-4979-ab83-87f89fdc8ba8}, !- Schedule Type Limits Name
  No,                                     !- Interpolate to Timestep
  2,                                      !- Hour 1
  0,                                      !- Minute 1
  0.5,                                    !- Value Until Time 1
  10,                                     !- Hour 2
  0,                                      !- Minute 2
  0.1,                                    !- Value Until Time 2
  11,                                     !- Hour 3
  0,                                      !- Minute 3
  0.5,                                    !- Value Until Time 3
  23,                                     !- Hour 4
  0,                                      !- Minute 4
  0.9,                                    !- Value Until Time 4
  24,                                     !- Hour 5
  0,                                      !- Minute 5
  0.5;                                    !- Value Until Time 5

OS:Schedule:Ruleset,
  {b7c67343-e7a8-40fd-8e0d-9fb04920aed7}, !- Handle
  NECB-B-Electric-Equipment,              !- Name
  {8f9f8be4-3e2d-4979-ab83-87f89fdc8ba8}, !- Schedule Type Limits Name
  {12dab03a-788c-41bf-8a22-42d92b4e862b}; !- Default Day Schedule Name

OS:Schedule:Day,
  {12dab03a-788c-41bf-8a22-42d92b4e862b}, !- Handle
  NECB-B-Electric-Equipment Default,      !- Name
  {8f9f8be4-3e2d-4979-ab83-87f89fdc8ba8}, !- Schedule Type Limits Name
  No,                                     !- Interpolate to Timestep
[...]
  0,                                      !- Fan Pressure Rise {Pa}
  1,                                      !- Fan Total Efficiency
  0.606,                                  !- Constant Term Coefficient
  0.03636,                                !- Temperature Term Coefficient
  0.1177,                                 !- Velocity Term Coefficient
  0,                                      !- Velocity Squared Term Coefficient
  18,                                     !- Minimum Indoor Temperature {C}
  {de78d861-d811-489e-a341-bf3943e73475}, !- Minimum Indoor Temperature Schedule Name
  100,                                    !- Maximum Indoor Temperature {C}
  {3dc5f978-0449-482c-a655-911f6f8beb47}, !- Maximum Indoor Temperature Schedule Name
  1,                                      !- Delta Temperature {deltaC}
  ,                                       !- Delta Temperature Schedule Name
  13,                                     !- Minimum Outdoor Temperature {C}
  ,                                       !- Minimum Outdoor Temperature Schedule Name
  100,                                    !- Maximum Outdoor Temperature {C}
  {3dc5f978-0449-482c-a655-911f6f8beb47}, !- Maximum Outdoor Temperature Schedule Name
  40;                                     !- Maximum Wind Speed {m/s}

OS:ZoneVentilation:WindandStackOpenArea,
  {8e4c0fff-4e77-4702-9da2-3742e8696327}, !- Handle
  Zone Ventilation Windand Stack Open Area 4, !- Name
  0.62600339664,                          !- Opening Area {m2}
  {976c1647-2cff-40f1-b662-ae774958bce8}, !- Opening Area Fraction Schedule Name
  autocalculate,                          !- Opening Effectiveness {dimensionless}
  90,                                     !- Effective Angle {deg}
  0,                                      !- Height Difference {m}
  autocalculate,                          !- Discharge Coefficient for Opening
  -100,                                   !- Minimum Indoor Temperature {C}
  {de78d861-d811-489e-a341-bf3943e73475}, !- Minimum Indoor Temperature Schedule Name
  100,                                    !- Maximum Indoor Temperature {C}
  {3dc5f978-0449-482c-a655-911f6f8beb47}, !- Maximum Indoor Temperature Schedule Name
  1,                                      !- Delta Temperature {deltaC}
  ,                                       !- Delta Temperature Schedule Name
  13,                                     !- Minimum Outdoor Temperature {C}
  ,                                       !- Minimum Outdoor Temperature Schedule Name
  100,                                    !- Maximum Outdoor Temperature {C}
  {3dc5f978-0449-482c-a655-911f6f8beb47}, !- Maximum Outdoor Temperature Schedule Name
  40;                                     !- Maximum Wind Speed {m/s}

OS:Schedule:Constant,
  {e27574f3-4b63-4733-86c6-6f4a7ce834a2}, !- Handle
  operable_window_schedule_constant 4,    !- Name
  {3d451385-2b40-46b0-a54b-83ba05d633aa}, !- Schedule Type Limits Name
  0;                                      !- Value

OS:ZoneVentilation:DesignFlowRate,
  {c728ea66-4ca1-40a7-8c5a-6cee0997ea07}, !- Handle
  Zone Ventilation Design Flow Rate 9,    !- Name
  {87f4506e-67d7-48ea-a690-085fc0cd4041}, !- Schedule Name
  Flow/Person,                            !- Design Flow Rate Calculation Method
  0,                                      !- Design Flow Rate {m3/s}
  0,                                      !- Flow Rate per Zone Floor Area {m3/s-m2}
  0.0101494073806452,                     !- Flow Rate per Person {m3/s-person}
  0,                                      !- Air Changes per Hour {1/hr}
  Natural,                                !- Ventilation Type
  0,                                      !- Fan Pressure Rise {Pa}
  1,                                      !- Fan Total Efficiency
  0.606,                                  !- Constant Term Coefficient
  0.03636,                                !- Temperature Term Coefficient
  0.1177,                                 !- Velocity Term Coefficient
  0,                                      !- Velocity Squared Term Coefficient
  18,                                     !- Minimum Indoor Temperature {C}
  {de78d861-d811-489e-a341-bf3943e73475}, !- Minimum Indoor Temperature Schedule Name
  100,                                    !- Maximum Indoor Temperature {C}
  {3dc5f978-0449-482c-a655-911f6f8beb47}, !- Maximum Indoor Temperature Schedule Name
  1,                                      !- Delta Temperature {deltaC}
  ,                                       !- Delta Temperature Schedule Name
  13,                                     !- Minimum Outdoor Temperature {C}
  ,                                       !- Minimum Outdoor Temperature Schedule Name
  100,                                    !- Maximum Outdoor Temperature {C}
  {3dc5f978-0449-482c-a655-911f6f8beb47}, !- Maximum Outdoor Temperature Schedule Name
  40;                                     !- Maximum Wind Speed {m/s}

OS:ZoneVentilation:DesignFlowRate,
  {ae8bd0ea-2be7-409a-ae69-dc382a6abc06}, !- Handle
  Zone Ventilation Design Flow Rate 10,   !- Name
  {87f4506e-67d7-48ea-a690-085fc0cd4041}, !- Schedule Name
  Flow/Area,                              !- Design Flow Rate Calculation Method
  0,                                      !- Design Flow Rate {m3/s}
  0,                                      !- Flow Rate per Zone Floor Area {m3/s-m2}
  0,                                      !- Flow Rate per Person {m3/s-person}
  0,                                      !- Air Changes per Hour {1/hr}
  Natural,                                !- Ventilation Type
  0,                                      !- Fan Pressure Rise {Pa}
  1,                                      !- Fan Total Efficiency
  0.606,                                  !- Constant Term Coefficient
  0.03636,                                !- Temperature Term Coefficient
  0.1177,                                 !- Velocity Term Coefficient
  0,                                      !- Velocity Squared Term Coefficient
  18,                                     !- Minimum Indoor Temperature {C}
  {de78d861-d811-489e-a341-bf3943e73475}, !- Minimum Indoor Temperature Schedule Name
  100,                                    !- Maximum Indoor Temperature {C}
  {3dc5f978-0449-482c-a655-911f6f8beb47}, !- Maximum Indoor Temperature Schedule Name
  1,                                      !- Delta Temperature {deltaC}
  ,                                       !- Delta Temperature Schedule Name
  13,                                     !- Minimum Outdoor Temperature {C}
  ,                                       !- Minimum Outdoor Temperature Schedule Name
  100,                                    !- Maximum Outdoor Temperature {C}
  {3dc5f978-0449-482c-a655-911f6f8beb47}, !- Maximum Outdoor Temperature Schedule Name
  40;                                     !- Maximum Wind Speed {m/s}

OS:ZoneVentilation:WindandStackOpenArea,
  {112e6186-8b4b-4c9d-90c4-cce923d3e1c8}, !- Handle
  Zone Ventilation Windand Stack Open Area 5, !- Name
  2.295349171848,                         !- Opening Area {m2}
  {e27574f3-4b63-4733-86c6-6f4a7ce834a2}, !- Opening Area Fraction Schedule Name
  autocalculate,                          !- Opening Effectiveness {dimensionless}
  0,                                      !- Effective Angle {deg}
  0,                                      !- Height Difference {m}
  autocalculate,                          !- Discharge Coefficient for Opening
  -100,                                   !- Minimum Indoor Temperature {C}
  {de78d861-d811-489e-a341-bf3943e73475}, !- Minimum Indoor Temperature Schedule Name
  100,                                    !- Maximum Indoor Temperature {C}
  {3dc5f978-0449-482c-a655-911f6f8beb47}, !- Maximum Indoor Temperature Schedule Name
  1,                                      !- Delta Temperature {deltaC}
  ,                                       !- Delta Temperature Schedule Name
  13,                                     !- Minimum Outdoor Temperature {C}
  ,                                       !- Minimum Outdoor Temperature Schedule Name
  100,                                    !- Maximum Outdoor Temperature {C}
  {3dc5f978-0449-482c-a655-911f6f8beb47}, !- Maximum Outdoor Temperature Schedule Name
  40;                                     !- Maximum Wind Speed {m/s}

OS:Schedule:Constant,
  {d873265b-ea73-4eeb-a8ad-f703ff899004}, !- Handle
  operable_window_schedule_constant 5,    !- Name
  {3d451385-2b40-46b0-a54b-83ba05d633aa}, !- Schedule Type Limits Name
  0;                                      !- Value

OS:ZoneVentilation:DesignFlowRate,
  {f96e0ffd-a76f-4293-9f9a-3dd0f83c61aa}, !- Handle
  Zone Ventilation Design Flow Rate 11,   !- Name
  {87f4506e-67d7-48ea-a690-085fc0cd4041}, !- Schedule Name
  Flow/Person,                            !- Design Flow Rate Calculation Method
  0,                                      !- Design Flow Rate {m3/s}
  0,                                      !- Flow Rate per Zone Floor Area {m3/s-m2}
  0.0101494073806452,                     !- Flow Rate per Person {m3/s-person}
  0,                                      !- Air Changes per Hour {1/hr}
  Natural,                                !- Ventilation Type
  0,                                      !- Fan Pressure Rise {Pa}
  1,                                      !- Fan Total Efficiency
  0.606,                                  !- Constant Term Coefficient
  0.03636,                                !- Temperature Term Coefficient
  0.1177,                                 !- Velocity Term Coefficient
  0,                                      !- Velocity Squared Term Coefficient
  18,                                     !- Minimum Indoor Temperature {C}
  {de78d861-d811-489e-a341-bf3943e73475}, !- Minimum Indoor Temperature Schedule Name
  100,                                    !- Maximum Indoor Temperature {C}
  {3dc5f978-0449-482c-a655-911f6f8beb47}, !- Maximum Indoor Temperature Schedule Name
  1,                                      !- Delta Temperature {deltaC}
  ,                                       !- Delta Temperature Schedule Name
  13,                                     !- Minimum Outdoor Temperature {C}
  ,                                       !- Minimum Outdoor Temperature Schedule Name
  100,                                    !- Maximum Outdoor Temperature {C}
  {3dc5f978-0449-482c-a655-911f6f8beb47}, !- Maximum Outdoor Temperature Schedule Name
  40;                                     !- Maximum Wind Speed {m/s}

OS:ZoneVentilation:DesignFlowRate,
  {24ea320d-08fd-4a9e-b900-9494b68f740d}, !- Handle
  Zone Ventilation Design Flow Rate 12,   !- Name
  {87f4506e-67d7-48ea-a690-085fc0cd4041}, !- Schedule Name
  Flow/Area,                              !- Design Flow Rate Calculation Method
  0,                                      !- Design Flow Rate {m3/s}
  0,                                      !- Flow Rate per Zone Floor Area {m3/s-m2}
  0,                                      !- Flow Rate per Person {m3/s-person}
  0,                                      !- Air Changes per Hour {1/hr}
  Natural,                                !- Ventilation Type
  0,                                      !- Fan Pressure Rise {Pa}
  1,                                      !- Fan Total Efficiency
  0.606,                                  !- Constant Term Coefficient
  0.03636,                                !- Temperature Term Coefficient
  0.1177,                                 !- Velocity Term Coefficient
  0,                                      !- Velocity Squared Term Coefficient
  18,                                     !- Minimum Indoor Temperature {C}
  {de78d861-d811-489e-a341-bf3943e73475}, !- Minimum Indoor Temperature Schedule Name
  100,                                    !- Maximum Indoor Temperature {C}
  {3dc5f978-0449-482c-a655-911f6f8beb47}, !- Maximum Indoor Temperature Schedule Name
  1,                                      !- Delta Temperature {deltaC}
  ,                                       !- Delta Temperature Schedule Name
  13,                                     !- Minimum Outdoor Temperature {C}
  ,                                       !- Minimum Outdoor Temperature Schedule Name
  100,                                    !- Maximum Outdoor Temperature {C}
  {3dc5f978-0449-482c-a655-911f6f8beb47}, !- Maximum Outdoor Temperature Schedule Name
  40;                                     !- Maximum Wind Speed {m/s}

OS:ZoneVentilation:WindandStackOpenArea,
  {62d722bd-4516-41c5-b8fe-67906666bc4c}, !- Handle
  Zone Ventilation Windand Stack Open Area 6, !- Name
  0.62600339664,                          !- Opening Area {m2}
  {d873265b-ea73-4eeb-a8ad-f703ff899004}, !- Opening Area Fraction Schedule Name
  autocalculate,                          !- Opening Effectiveness {dimensionless}
  270,                                    !- Effective Angle {deg}
  0,                                      !- Height Difference {m}
  autocalculate,                          !- Discharge Coefficient for Opening
  -100,                                   !- Minimum Indoor Temperature {C}
  {de78d861-d811-489e-a341-bf3943e73475}, !- Minimum Indoor Temperature Schedule Name
  100,                                    !- Maximum Indoor Temperature {C}
  {3dc5f978-0449-482c-a655-911f6f8beb47}, !- Maximum Indoor Temperature Schedule Name
  1,                                      !- Delta Temperature {deltaC}
  ,                                       !- Delta Temperature Schedule Name
  13,                                     !- Minimum Outdoor Temperature {C}
  ,                                       !- Minimum Outdoor Temperature Schedule Name
  100,                                    !- Maximum Outdoor Temperature {C}
  {3dc5f978-0449-482c-a655-911f6f8beb47}, !- Maximum Outdoor Temperature Schedule Name
  40;                                     !- Maximum Wind Speed {m/s}

OS:AvailabilityManager:HybridVentilation,
  {6ec5d5b1-0aa7-4b20-a2ef-9c16a3cd2892}, !- Handle
  Availability Manager Hybrid Ventilation 1, !- Name
  ,                                       !- Controlled Zone
  {76729783-48d2-4fe2-9537-a9fff9fba96a}, !- Ventilation Control Mode Schedule
  Yes,                                    !- Use Weather File Rain Indicators
  40,                                     !- Maximum Wind Speed {m/s}
  13,                                     !- Minimum Outdoor Temperature {C}
  30,                                     !- Maximum Outdoor Temperature {C}
  20000,                                  !- Minimum Outdoor Enthalpy {J/kg}
  30000,                                  !- Maximum Outdoor Enthalpy {J/kg}
  15,                                     !- Minimum Outdoor Dewpoint {C}
  30,                                     !- Maximum Outdoor Dewpoint {C}
  {b428b393-a40a-47a7-b9a5-9aef8abd6fa5}, !- Minimum Outdoor Ventilation Air Schedule
  ,                                       !- Opening Factor Function of Wind Speed Curve
  ,                                       !- AirflowNetwork Control Type Schedule
  ,                                       !- Simple Airflow Control Type Schedule
  ,                                       !- ZoneVentilation Object
  0,                                      !- Minimum HVAC Operation Time {minutes}
  0;                                      !- Minimum Ventilation Time {minutes}

OS:Schedule:Ruleset,
  {76729783-48d2-4fe2-9537-a9fff9fba96a}, !- Handle
  Schedule Ruleset 3,                     !- Name
  {903fad16-b42a-4fde-bd3a-f32b13e1f56d}, !- Schedule Type Limits Name
  {8c8864e3-3689-42e1-a0ad-53c86631902a}; !- Default Day Schedule Name

OS:Schedule:Day,
  {8c8864e3-3689-42e1-a0ad-53c86631902a}, !- Handle
  Schedule Day 9,                         !- Name
  {903fad16-b42a-4fde-bd3a-f32b13e1f56d}, !- Schedule Type Limits Name
  ,                                       !- Interpolate to Timestep
  24,                                     !- Hour 1
  0,                                      !- Minute 1
  1;                                      !- Value Until Time 1

OS:ScheduleTypeLimits,
  {903fad16-b42a-4fde-bd3a-f32b13e1f56d}, !- Handle
  Integer,                                !- Name
  0,                                      !- Lower Limit Value
  4,                                      !- Upper Limit Value
  Discrete;                               !- Numeric Type

OS:Schedule:Ruleset,
  {b428b393-a40a-47a7-b9a5-9aef8abd6fa5}, !- Handle
  Schedule Ruleset 4,                     !- Name
  {474e81f8-bcc6-4b27-9c21-936b4e0d2717}, !- Schedule Type Limits Name
  {5c542389-3290-4b8f-b963-b49ccacb5005}; !- Default Day Schedule Name

OS:Schedule:Day,
  {5c542389-3290-4b8f-b963-b49ccacb5005}, !- Handle
  Schedule Day 10,                        !- Name
  {474e81f8-bcc6-4b27-9c21-936b4e0d2717}, !- Schedule Type Limits Name
  ,                                       !- Interpolate to Timestep
  24,                                     !- Hour 1
  0,                                      !- Minute 1
  0;                                      !- Value Until Time 1

OS:AvailabilityManager:HybridVentilation,
  {f72f4144-6848-47cd-8594-76abf5471316}, !- Handle
  Availability Manager Hybrid Ventilation 2, !- Name
  ,                                       !- Controlled Zone
  {5e43c392-2ac7-429a-9798-f2f07d75279d}, !- Ventilation Control Mode Schedule
  Yes,                                    !- Use Weather File Rain Indicators
  40,                                     !- Maximum Wind Speed {m/s}
  13,                                     !- Minimum Outdoor Temperature {C}
  30,                                     !- Maximum Outdoor Temperature {C}
  20000,                                  !- Minimum Outdoor Enthalpy {J/kg}
  30000,                                  !- Maximum Outdoor Enthalpy {J/kg}
  15,                                     !- Minimum Outdoor Dewpoint {C}
  30,                                     !- Maximum Outdoor Dewpoint {C}
  {06535fa4-3b05-41c3-b667-d9cf1a2ad6e5}, !- Minimum Outdoor Ventilation Air Schedule
  ,                                       !- Opening Factor Function of Wind Speed Curve
  ,                                       !- AirflowNetwork Control Type Schedule
  ,                                       !- Simple Airflow Control Type Schedule
  ,                                       !- ZoneVentilation Object
  0,                                      !- Minimum HVAC Operation Time {minutes}
  0;                                      !- Minimum Ventilation Time {minutes}

OS:Schedule:Ruleset,
  {5e43c392-2ac7-429a-9798-f2f07d75279d}, !- Handle
  Schedule Ruleset 5,                     !- Name
  {903fad16-b42a-4fde-bd3a-f32b13e1f56d}, !- Schedule Type Limits Name
  {98dbfcb8-f779-4b34-954e-eb529675a828}; !- Default Day Schedule Name

OS:Schedule:Day,
  {98dbfcb8-f779-4b34-954e-eb529675a828}, !- Handle
  Schedule Day 11,                        !- Name
  {903fad16-b42a-4fde-bd3a-f32b13e1f56d}, !- Schedule Type Limits Name
  ,                                       !- Interpolate to Timestep
  24,                                     !- Hour 1
  0,                                      !- Minute 1
  1;                                      !- Value Until Time 1

OS:Schedule:Ruleset,
  {06535fa4-3b05-41c3-b667-d9cf1a2ad6e5}, !- Handle
  Schedule Ruleset 6,                     !- Name
  {474e81f8-bcc6-4b27-9c21-936b4e0d2717}, !- Schedule Type Limits Name
  {7e16b7d2-aca9-4fbb-8f02-785ac0f740aa}; !- Default Day Schedule Name

OS:Schedule:Day,
  {7e16b7d2-aca9-4fbb-8f02-785ac0f740aa}, !- Handle
  Schedule Day 12,                        !- Name
  {474e81f8-bcc6-4b27-9c21-936b4e0d2717}, !- Schedule Type Limits Name
  ,                                       !- Interpolate to Timestep
  24,                                     !- Hour 1
  0,                                      !- Minute 1
  0;                                      !- Value Until Time 1

