
OS:Version,
  {9cff3153-c813-466e-9e5b-5ee438d94310}, !- Handle
  3.9.0;                                  !- Version Identifier

OS:ScheduleTypeLimits,
  {4d52094f-5ed7-4a57-9436-ae440a782fae}, !- Handle
  Always On Discrete Limits,              !- Name
  0,                                      !- Lower Limit Value
  1,                                      !- Upper Limit Value
  Discrete,                               !- Numeric Type
  Availability;                           !- Unit Type

OS:Site,
  {c57bbf3e-5555-4e8f-a064-f03eb5a0e42f}, !- Handle
  Yellowknife AP_NT_CAN,                  !- Name
  62.46,                                  !- Latitude {deg}
  -114.44,                                !- Longitude {deg}
  -7,                                     !- Time Zone {hr}
  205.7,                                  !- Elevation {m}
  City;                                   !- Terrain

OS:SimulationControl,
  {8319685c-4a24-4d40-bf6f-d94387dacb21}, !- Handle
  Yes,                                    !- Do Zone Sizing Calculation
  Yes,                                    !- Do System Sizing Calculation
  Yes,                                    !- Do Plant Sizing Calculation
  No,                                     !- Run Simulation for Sizing Periods
  Yes,                                    !- Run Simulation for Weather File Run Periods
  0.04,                                   !- Loads Convergence Tolerance Value {W}
  0.2,                                    !- Temperature Convergence Tolerance Value {deltaC}
  FullInteriorAndExterior,                !- Solar Distribution
  25,                                     !- Maximum Number of Warmup Days
  6,                                      !- Minimum Number of Warmup Days
  No,                                     !- Do HVAC Sizing Simulation for Sizing Periods
  1;                                      !- Maximum Number of HVAC Sizing Simulation Passes

OS:Surface,
  {aeb5cd29-a61e-4f1d-a376-0e8c63c45f3b}, !- Handle
  Room_2_Flr_6_Ceiling,                   !- Name
  RoofCeiling,                            !- Surface Type
  ,                                       !- Construction Name
  {735c6fa8-525c-45a3-82b3-b38ec3245a8f}, !- Space Name
  Outdoors,                               !- Outside Boundary Condition
  ,                                       !- Outside Boundary Condition Object
  SunExposed,                             !- Sun Exposure
  WindExposed,                            !- Wind Exposure
  ,                                       !- View Factor to Ground
  ,                                       !- Number of Vertices
  4.572, 14.326, 19.2,                    !- X,Y,Z Vertex 1 {m}
  4.572, 22.86, 19.2,                     !- X,Y,Z Vertex 2 {m}
  0, 22.86, 19.2,                         !- X,Y,Z Vertex 3 {m}
  0, 14.326, 19.2;                        !- X,Y,Z Vertex 4 {m}

OS:Connection,
  {781cba12-e6df-4891-9f19-d4162ef2e789}, !- Handle
  ,                                       !- Source Object
  11,                                     !- Outlet Port
  ,                                       !- Target Object
  2;                                      !- Inlet Port

OS:Space,
  {735c6fa8-525c-45a3-82b3-b38ec3245a8f}, !- Handle
  Room_2_Flr_6,                           !- Name
  {968adab2-f5e7-46f2-8024-73181e80f0e2}, !- Space Type Name
  ,                                       !- Default Construction Set Name
  ,                                       !- Default Schedule Set Name
  -0,                                     !- Direction of Relative North {deg}
  0,                                      !- X Origin {m}
  0,                                      !- Y Origin {m}
  0,                                      !- Z Origin {m}
  {f4639d5b-3224-4500-bf20-cb7454712ad8}, !- Building Story Name
  {a5aee9bf-8525-489b-9563-e0651bf7d359}, !- Thermal Zone Name
  Yes,                                    !- Part of Total Floor Area
  ,                                       !- Design Specification Outdoor Air Object Name
  ,                                       !- Building Unit Name
  Autocalculate;                          !- Volume {m3}

OS:Connection,
  {4c0e5a9e-286b-489f-b267-6f34abc63eb3}, !- Handle
  ,                                       !- Source Object
  11,                                     !- Outlet Port
  ,                                       !- Target Object
  2;                                      !- Inlet Port

OS:Space,
  {1c9aeaea-a105-4381-890b-4d9f9ad931ee}, !- Handle
  Corridor_Flr_3,                         !- Name
  {607c85b9-114f-4e68-a45d-47bbffbb92a3}, !- Space Type Name
  ,                                       !- Default Construction Set Name
  ,                                       !- Default Schedule Set Name
  -0,                                     !- Direction of Relative North {deg}
  0,                                      !- X Origin {m}
  0,                                      !- Y Origin {m}
  0,                                      !- Z Origin {m}
  {2053599b-ba44-402f-8dd3-3ba65307fe07}, !- Building Story Name
  {fe28f1b7-0458-40da-8322-14feec584462}, !- Thermal Zone Name
  Yes,                                    !- Part of Total Floor Area
  ,                                       !- Design Specification Outdoor Air Object Name
  ,                                       !- Building Unit Name
  Autocalculate;                          !- Volume {m3}

OS:ConvergenceLimits,
  {70f72b8f-0f12-4d6c-9b47-243771b0e570}, !- Handle
  1,                                      !- Minimum System Timestep {minutes}
  20;                                     !- Maximum HVAC Iterations

OS:Surface,
  {c6949061-d672-44fe-ae38-b59964db2117}, !- Handle
  Banquet_Flr_6_Wall_North,               !- Name
  Wall,                                   !- Surface Type
  ,                                       !- Construction Name
  {ba3048dd-f7da-474c-bbec-d2605f9e6cc4}, !- Space Name
  Outdoors,                               !- Outside Boundary Condition
  ,                                       !- Outside Boundary Condition Object
  SunExposed,                             !- Sun Exposure
  WindExposed,                            !- Wind Exposure
  ,                                       !- View Factor to Ground
  ,                                       !- Number of Vertices
  42.367, 22.86, 19.2,                    !- X,Y,Z Vertex 1 {m}
  42.367, 22.86, 16.152,                  !- X,Y,Z Vertex 2 {m}
  10.363, 22.86, 16.152,                  !- X,Y,Z Vertex 3 {m}
  10.363, 22.86, 19.2;                    !- X,Y,Z Vertex 4 {m}

OS:Connection,
  {5070de4c-886e-4c17-b6b0-35b5d628bfb8}, !- Handle
  ,                                       !- Source Object
  11,                                     !- Outlet Port
  ,                                       !- Target Object
  2;                                      !- Inlet Port

OS:Space,
  {ba3048dd-f7da-474c-bbec-d2605f9e6cc4}, !- Handle
  Banquet_Flr_6,                          !- Name
  {1bb35fe6-816a-40d1-8884-93e01d7df849}, !- Space Type Name
  ,                                       !- Default Construction Set Name
  ,                                       !- Default Schedule Set Name
  -0,                                     !- Direction of Relative North {deg}
  0,                                      !- X Origin {m}
  0,                                      !- Y Origin {m}
  0,                                      !- Z Origin {m}
  {f4639d5b-3224-4500-bf20-cb7454712ad8}, !- Building Story Name
  {59770ece-94cf-4684-a47d-e549ff88f415}, !- Thermal Zone Name
  Yes,                                    !- Part of Total Floor Area
  ,                                       !- Design Specification Outdoor Air Object Name
  ,                                       !- Building Unit Name
  Autocalculate;                          !- Volume {m3}

OS:Connection,
  {65d7cf7d-d932-493f-89db-86a3c9021e51}, !- Handle
  ,                                       !- Source Object
  11,                                     !- Outlet Port
  ,                                       !- Target Object
  2;                                      !- Inlet Port

OS:Space,
  {b4cff31b-2b2e-470e-b7c8-55b05f6374f6}, !- Handle
  Laundry_Flr_1,                          !- Name
  {c8a48527-7ec3-43e5-95de-2d5a58909a79}, !- Space Type Name
  ,                                       !- Default Construction Set Name
  ,                                       !- Default Schedule Set Name
  -0,                                     !- Direction of Relative North {deg}
  0,                                      !- X Origin {m}
  0,                                      !- Y Origin {m}
  0,                                      !- Z Origin {m}
  {0e4d49ab-bfaf-4502-af98-19b90ca05d17}, !- Building Story Name
  {0525fa25-ec2d-49c0-941b-23271a785264}, !- Thermal Zone Name
  Yes,                                    !- Part of Total Floor Area
  ,                                       !- Design Specification Outdoor Air Object Name
  ,                                       !- Building Unit Name
  Autocalculate;                          !- Volume {m3}

OS:Surface,
  {7a866f98-032d-41ac-a05d-868768c9a2ff}, !- Handle
  Lobby_Flr_1_Wall_2_West,                !- Name
  Wall,                                   !- Surface Type
  ,                                       !- Construction Name
  {5f877673-6afe-4f1f-960f-7e78d281ff4b}, !- Space Name
  Surface,                                !- Outside Boundary Condition
  {3d0a89d0-0a71-4089-9adc-9c61c7036422}, !- Outside Boundary Condition Object
  NoSun,                                  !- Sun Exposure
  NoWind,                                 !- Wind Exposure
  ,                                       !- View Factor to Ground
  ,                                       !- Number of Vertices
  11.582, 5.791, 3.9624,                  !- X,Y,Z Vertex 1 {m}
  11.582, 5.791, 0,                       !- X,Y,Z Vertex 2 {m}
  11.582, 0, 0,                           !- X,Y,Z Vertex 3 {m}
  11.582, 0, 3.9624;                      !- X,Y,Z Vertex 4 {m}

OS:Connection,
  {8d17990b-3f1e-46be-9dbb-a4a09f7ccc3f}, !- Handle
  ,                                       !- Source Object
  11,                                     !- Outlet Port
  ,                                       !- Target Object
  2;                                      !- Inlet Port

OS:Space,
  {5f877673-6afe-4f1f-960f-7e78d281ff4b}, !- Handle
  Lobby_Flr_1,                            !- Name
  {3cd62246-bb6e-4be4-84f7-f1e1e4db9111}, !- Space Type Name
  ,                                       !- Default Construction Set Name
  ,                                       !- Default Schedule Set Name
  -0,                                     !- Direction of Relative North {deg}
  0,                                      !- X Origin {m}
  0,                                      !- Y Origin {m}
  0,                                      !- Z Origin {m}
  {0e4d49ab-bfaf-4502-af98-19b90ca05d17}, !- Building Story Name
  {f8b151ec-3b50-4c89-8db2-220a9077fc5c}, !- Thermal Zone Name
  Yes,                                    !- Part of Total Floor Area
  ,                                       !- Design Specification Outdoor Air Object Name
  ,                                       !- Building Unit Name
  Autocalculate;                          !- Volume {m3}

OS:Connection,
  {f7376c8c-aa24-405d-a5e4-3c56fed1b56e}, !- Handle
  ,                                       !- Source Object
  11,                                     !- Outlet Port
  ,                                       !- Target Object
  2;                                      !- Inlet Port

OS:Space,
  {53c7fa8b-d0a9-4d59-9f72-ab5b6de28e90}, !- Handle
  Kitchen_Flr_6,                          !- Name
  {3951b0f5-be1f-4b98-9198-a6d39a405825}, !- Space Type Name
  ,                                       !- Default Construction Set Name
  ,                                       !- Default Schedule Set Name
  -0,                                     !- Direction of Relative North {deg}
  0,                                      !- X Origin {m}
  0,                                      !- Y Origin {m}
  0,                                      !- Z Origin {m}
  {f4639d5b-3224-4500-bf20-cb7454712ad8}, !- Building Story Name
  {1fe1d811-9553-487d-9d10-064f4d7166e0}, !- Thermal Zone Name
  Yes,                                    !- Part of Total Floor Area
  ,                                       !- Design Specification Outdoor Air Object Name
  ,                                       !- Building Unit Name
  Autocalculate;                          !- Volume {m3}

OS:Surface,
  {3d0a89d0-0a71-4089-9adc-9c61c7036422}, !- Handle
  Retail_1_Flr_1_Wall_East,               !- Name
  Wall,                                   !- Surface Type
  ,                                       !- Construction Name
  {1a878509-17bb-4788-a93c-b231afdbd395}, !- Space Name
  Surface,                                !- Outside Boundary Condition
  {7a866f98-032d-41ac-a05d-868768c9a2ff}, !- Outside Boundary Condition Object
  NoSun,                                  !- Sun Exposure
  NoWind,                                 !- Wind Exposure
  ,                                       !- View Factor to Ground
  ,                                       !- Number of Vertices
  11.582, 0, 3.9624,                      !- X,Y,Z Vertex 1 {m}
  11.582, 0, 0,                           !- X,Y,Z Vertex 2 {m}
  11.582, 5.791, 0,                       !- X,Y,Z Vertex 3 {m}
  11.582, 5.791, 3.9624;                  !- X,Y,Z Vertex 4 {m}

OS:Connection,
  {eb899891-4838-40c2-89a9-86d7fdbfc42f}, !- Handle
  ,                                       !- Source Object
  11,                                     !- Outlet Port
  ,                                       !- Target Object
  2;                                      !- Inlet Port

OS:Space,
  {1a878509-17bb-4788-a93c-b231afdbd395}, !- Handle
  Retail_1_Flr_1,                         !- Name
  {1dd83e0f-7c2e-49e8-9a77-2b3b3f609d02}, !- Space Type Name
  ,                                       !- Default Construction Set Name
  ,                                       !- Default Schedule Set Name
  -0,                                     !- Direction of Relative North {deg}
  0,                                      !- X Origin {m}
  0,                                      !- Y Origin {m}
  0,                                      !- Z Origin {m}
  {0e4d49ab-bfaf-4502-af98-19b90ca05d17}, !- Building Story Name
  {c9560457-b41c-427d-aff0-52f7a214cdda}, !- Thermal Zone Name
  Yes,                                    !- Part of Total Floor Area
  ,                                       !- Design Specification Outdoor Air Object Name
  ,                                       !- Building Unit Name
  Autocalculate;                          !- Volume {m3}

OS:Building,
  {bb5b588d-ed54-4560-ae15-dfaff42d1cbb}, !- Handle
  LargeHotel,                             !- Name
  ,                                       !- Building Sector Type
  0,                                      !- North Axis {deg}
  ,                                       !- Nominal Floor to Floor Height {m}
  ,                                       !- Space Type Name
  {5855679c-0a73-4e6d-b4ed-50e05266f8dc}, !- Default Construction Set Name
  ,                                       !- Default Schedule Set Name
  7,                                      !- Standards Number of Stories
  6,                                      !- Standards Number of Above Ground Stories
  NECB2020,                               !- Standards Template
  LargeHotel,                             !- Standards Building Type
  ,                                       !- Standards Number of Living Units
  ,                                       !- Relocatable
  ;                                       !- Nominal Floor to Ceiling Height {m}

OS:Connection,
  {3090efff-d176-4979-b979-fc01b07b5836}, !- Handle
  ,                                       !- Source Object
  11,                                     !- Outlet Port
  ,                                       !- Target Object
  2;                                      !- Inlet Port

OS:Space,
  {60361c47-6132-479f-892b-2ef2551c2988}, !- Handle
  Room_1_Flr_3,                           !- Name
  {968adab2-f5e7-46f2-8024-73181e80f0e2}, !- Space Type Name
  ,                                       !- Default Construction Set Name
  ,                                       !- Default Schedule Set Name
  -0,                                     !- Direction of Relative North {deg}
  0,                                      !- X Origin {m}
  0,                                      !- Y Origin {m}
  0,                                      !- Z Origin {m}
  {2053599b-ba44-402f-8dd3-3ba65307fe07}, !- Building Story Name
  {6456a1ad-2d37-42b5-a1e8-50a171e66a2c}, !- Thermal Zone Name
  Yes,                                    !- Part of Total Floor Area
  ,                                       !- Design Specification Outdoor Air Object Name
  ,                                       !- Building Unit Name
  Autocalculate;                          !- Volume {m3}

OS:Surface,
  {3478624a-5157-4245-b315-fbf2db6bd787}, !- Handle
  Basement_Ceiling_1,                     !- Name
  RoofCeiling,                            !- Surface Type
  ,                                       !- Construction Name
  {e8215437-4d6e-4194-81a3-8e59d7aab856}, !- Space Name
  Surface,                                !- Outside Boundary Condition
  {446fb5be-4dcf-466e-9cf9-aa3d479afdde}, !- Outside Boundary Condition Object
  NoSun,                                  !- Sun Exposure
  NoWind,                                 !- Wind Exposure
  ,                                       !- View Factor to Ground
  ,                                       !- Number of Vertices
  11.582, 0, 0,                           !- X,Y,Z Vertex 1 {m}
  11.582, 5.791, 0,                       !- X,Y,Z Vertex 2 {m}
  0, 5.791, 0,                            !- X,Y,Z Vertex 3 {m}
  0, 0, 0;                                !- X,Y,Z Vertex 4 {m}

OS:Connection,
  {3aa6f83c-5a18-431b-b1f5-4478b9f83a74}, !- Handle
  ,                                       !- Source Object
  11,                                     !- Outlet Port
  ,                                       !- Target Object
  2;                                      !- Inlet Port

OS:Space,
  {e8215437-4d6e-4194-81a3-8e59d7aab856}, !- Handle
  Basement,                               !- Name
  {1db7ae02-984b-4f94-828f-b1dc879725a0}, !- Space Type Name
  ,                                       !- Default Construction Set Name
  ,                                       !- Default Schedule Set Name
  -0,                                     !- Direction of Relative North {deg}
  0,                                      !- X Origin {m}
  0,                                      !- Y Origin {m}
  0,                                      !- Z Origin {m}
  {5e09a01c-d73b-462b-a0e7-6329f805a99c}, !- Building Story Name
  {c2814968-6725-431e-9226-2a4ab425a4e2}, !- Thermal Zone Name
  Yes,                                    !- Part of Total Floor Area
  ,                                       !- Design Specification Outdoor Air Object Name
  ,                                       !- Building Unit Name
  Autocalculate;                          !- Volume {m3}

OS:Surface,
  {019125a0-77bb-419d-a7f6-68140c061ebb}, !- Handle
  Corridor_Flr_6_Wall_2_West,             !- Name
  Wall,                                   !- Surface Type
  ,                                       !- Construction Name
  {727f620c-8075-4586-8703-48bde7f60f5c}, !- Space Name
  Surface,                                !- Outside Boundary Condition
  {82d225ea-f9f0-4298-b589-b6cb5b1f8282}, !- Outside Boundary Condition Object
  NoSun,                                  !- Sun Exposure
  NoWind,                                 !- Wind Exposure
  ,                                       !- View Factor to Ground
  ,                                       !- Number of Vertices
  4.572, 14.326, 19.2,                    !- X,Y,Z Vertex 1 {m}
  4.572, 14.326, 16.152,                  !- X,Y,Z Vertex 2 {m}
  4.572, 9.449, 16.152,                   !- X,Y,Z Vertex 3 {m}
  4.572, 9.449, 19.2;                     !- X,Y,Z Vertex 4 {m}

OS:Connection,
  {196bd115-1013-46af-a102-7952336117b6}, !- Handle
  ,                                       !- Source Object
  11,                                     !- Outlet Port
  ,                                       !- Target Object
  2;                                      !- Inlet Port

OS:Space,
  {727f620c-8075-4586-8703-48bde7f60f5c}, !- Handle
  Corridor_Flr_6,                         !- Name
  {607c85b9-114f-4e68-a45d-47bbffbb92a3}, !- Space Type Name
  ,                                       !- Default Construction Set Name
  ,                                       !- Default Schedule Set Name
  -0,                                     !- Direction of Relative North {deg}
  0,                                      !- X Origin {m}
  0,                                      !- Y Origin {m}
  0,                                      !- Z Origin {m}
  {f4639d5b-3224-4500-bf20-cb7454712ad8}, !- Building Story Name
  {7b2913af-216b-4413-9a32-7ee4d82d1f7e}, !- Thermal Zone Name
  Yes,                                    !- Part of Total Floor Area
  ,                                       !- Design Specification Outdoor Air Object Name
  ,                                       !- Building Unit Name
  Autocalculate;                          !- Volume {m3}

OS:Surface,
  {228be3ab-60a2-4075-a255-0ca7e031bd61}, !- Handle
  Room_6_Flr_3_Wall_North,                !- Name
  Wall,                                   !- Surface Type
  ,                                       !- Construction Name
  {43edd94b-1dd2-4c9a-87d9-1a557847cf2c}, !- Space Name
  Outdoors,                               !- Outside Boundary Condition
  ,                                       !- Outside Boundary Condition Object
  SunExposed,                             !- Sun Exposure
  WindExposed,                            !- Wind Exposure
  ,                                       !- View Factor to Ground
  ,                                       !- Number of Vertices
  86.563, 22.86, 10.056,                  !- X,Y,Z Vertex 1 {m}
  86.563, 22.86, 7.008,                   !- X,Y,Z Vertex 2 {m}
  81.991, 22.86, 7.008,                   !- X,Y,Z Vertex 3 {m}
  81.991, 22.86, 10.056;                  !- X,Y,Z Vertex 4 {m}

OS:Connection,
  {cdf9e9c2-4195-48df-8a75-8d35d654843b}, !- Handle
  ,                                       !- Source Object
  11,                                     !- Outlet Port
  ,                                       !- Target Object
  2;                                      !- Inlet Port

OS:Space,
  {43edd94b-1dd2-4c9a-87d9-1a557847cf2c}, !- Handle
  Room_6_Flr_3,                           !- Name
  {968adab2-f5e7-46f2-8024-73181e80f0e2}, !- Space Type Name
  ,                                       !- Default Construction Set Name
  ,                                       !- Default Schedule Set Name
  -0,                                     !- Direction of Relative North {deg}
  0,                                      !- X Origin {m}
  0,                                      !- Y Origin {m}
  0,                                      !- Z Origin {m}
  {2053599b-ba44-402f-8dd3-3ba65307fe07}, !- Building Story Name
  {2a4f8e6b-d6bb-4cfc-9e24-86a4a311d1da}, !- Thermal Zone Name
  Yes,                                    !- Part of Total Floor Area
  ,                                       !- Design Specification Outdoor Air Object Name
  ,                                       !- Building Unit Name
  Autocalculate;                          !- Volume {m3}

OS:Surface,
  {b0779a3c-3a11-4697-babc-7a5313fa15eb}, !- Handle
  Lobby_Flr_1_Wall_1_North,               !- Name
  Wall,                                   !- Surface Type
  ,                                       !- Construction Name
  {5f877673-6afe-4f1f-960f-7e78d281ff4b}, !- Space Name
  Outdoors,                               !- Outside Boundary Condition
  ,                                       !- Outside Boundary Condition Object
  SunExposed,                             !- Sun Exposure
  WindExposed,                            !- Wind Exposure
  ,                                       !- View Factor to Ground
  ,                                       !- Number of Vertices
  53.95, 22.86, 3.9624,                   !- X,Y,Z Vertex 1 {m}
  53.95, 22.86, 0,                        !- X,Y,Z Vertex 2 {m}
  0, 22.86, 0,                            !- X,Y,Z Vertex 3 {m}
  0, 22.86, 3.9624;                       !- X,Y,Z Vertex 4 {m}

OS:Surface,
  {1270c231-dd8a-42a9-a14e-9420d04b6fbe}, !- Handle
  Basement_Ceiling_5,                     !- Name
  RoofCeiling,                            !- Surface Type
  ,                                       !- Construction Name
  {e8215437-4d6e-4194-81a3-8e59d7aab856}, !- Space Name
  Surface,                                !- Outside Boundary Condition
  {bf3482d2-209c-482d-af23-dc13969f1570}, !- Outside Boundary Condition Object
  NoSun,                                  !- Sun Exposure
  NoWind,                                 !- Wind Exposure
  ,                                       !- View Factor to Ground
  ,                                       !- Number of Vertices
  86.563, 5.791, 0,                       !- X,Y,Z Vertex 1 {m}
  86.563, 22.86, 0,                       !- X,Y,Z Vertex 2 {m}
  81.991, 22.86, 0,                       !- X,Y,Z Vertex 3 {m}
  81.991, 5.791, 0;                       !- X,Y,Z Vertex 4 {m}

OS:Connection,
  {e27ebe38-324e-4ef0-b95d-ba89bc1c883c}, !- Handle
  ,                                       !- Source Object
  11,                                     !- Outlet Port
  ,                                       !- Target Object
  2;                                      !- Inlet Port

OS:Space,
  {f220e1f3-aa91-4513-9f9a-e8dd4a412b4d}, !- Handle
  Room_5_Flr_3,                           !- Name
  {968adab2-f5e7-46f2-8024-73181e80f0e2}, !- Space Type Name
  ,                                       !- Default Construction Set Name
  ,                                       !- Default Schedule Set Name
  -0,                                     !- Direction of Relative North {deg}
  0,                                      !- X Origin {m}
  0,                                      !- Y Origin {m}
  0,                                      !- Z Origin {m}
  {2053599b-ba44-402f-8dd3-3ba65307fe07}, !- Building Story Name
  {6e223ac1-ccfc-4631-98d7-90cb8554c010}, !- Thermal Zone Name
  Yes,                                    !- Part of Total Floor Area
  ,                                       !- Design Specification Outdoor Air Object Name
  ,                                       !- Building Unit Name
  Autocalculate;                          !- Volume {m3}

OS:Surface,
  {9fadde92-d4f7-4525-8480-9afe67881f7d}, !- Handle
  Corridor_Flr_6_Wall_3_East,             !- Name
  Wall,                                   !- Surface Type
  ,                                       !- Construction Name
  {727f620c-8075-4586-8703-48bde7f60f5c}, !- Space Name
  Surface,                                !- Outside Boundary Condition
  {0b1a5647-b47b-4ce4-9155-63042cc6cea1}, !- Outside Boundary Condition Object
  NoSun,                                  !- Sun Exposure
  NoWind,                                 !- Wind Exposure
  ,                                       !- View Factor to Ground
  ,                                       !- Number of Vertices
  81.991, 5.791, 19.2,                    !- X,Y,Z Vertex 1 {m}
  81.991, 5.791, 16.152,                  !- X,Y,Z Vertex 2 {m}
  81.991, 12.497, 16.152,                 !- X,Y,Z Vertex 3 {m}
  81.991, 12.497, 19.2;                   !- X,Y,Z Vertex 4 {m}

OS:Connection,
  {2b846342-4cb7-49cb-9ade-b452b9a1a898}, !- Handle
  ,                                       !- Source Object
  11,                                     !- Outlet Port
  ,                                       !- Target Object
  2;                                      !- Inlet Port

OS:Space,
  {72c99aa5-adda-4d43-8716-a054b8639a94}, !- Handle
  Room_4_1_Flr_3,                         !- Name
  {968adab2-f5e7-46f2-8024-73181e80f0e2}, !- Space Type Name
  ,                                       !- Default Construction Set Name
  ,                                       !- Default Schedule Set Name
  -0,                                     !- Direction of Relative North {deg}
  0,                                      !- X Origin {m}
  0,                                      !- Y Origin {m}
  0,                                      !- Z Origin {m}
  {2053599b-ba44-402f-8dd3-3ba65307fe07}, !- Building Story Name
  {4e0dcb23-bf75-46d9-b060-c3c45b623aca}, !- Thermal Zone Name
  Yes,                                    !- Part of Total Floor Area
  ,                                       !- Design Specification Outdoor Air Object Name
  ,                                       !- Building Unit Name
  Autocalculate;                          !- Volume {m3}

OS:Surface,
  {8cfcc863-8692-441a-98ac-1f13f4ce09d5}, !- Handle
  Room_3_1_Flr_6_Wall_West,               !- Name
  Wall,                                   !- Surface Type
  ,                                       !- Construction Name
  {33e71202-8fbd-4e14-b534-3eb0a82a5cec}, !- Space Name
  Surface,                                !- Outside Boundary Condition
  {b07c7525-68e4-441d-9fd3-3a523914d0a1}, !- Outside Boundary Condition Object
  NoSun,                                  !- Sun Exposure
  NoWind,                                 !- Wind Exposure
  ,                                       !- View Factor to Ground
  ,                                       !- Number of Vertices
  4.572, 9.449, 19.2,                     !- X,Y,Z Vertex 1 {m}
  4.572, 9.449, 16.152,                   !- X,Y,Z Vertex 2 {m}
  4.572, 5.791, 16.152,                   !- X,Y,Z Vertex 3 {m}
  4.572, 5.791, 19.2;                     !- X,Y,Z Vertex 4 {m}

OS:Connection,
  {35f1f8fb-47de-4509-a6f8-9631169482b2}, !- Handle
  ,                                       !- Source Object
  11,                                     !- Outlet Port
  ,                                       !- Target Object
  2;                                      !- Inlet Port

OS:Space,
  {33e71202-8fbd-4e14-b534-3eb0a82a5cec}, !- Handle
  Room_3_1_Flr_6,                         !- Name
  {968adab2-f5e7-46f2-8024-73181e80f0e2}, !- Space Type Name
  ,                                       !- Default Construction Set Name
  ,                                       !- Default Schedule Set Name
  -0,                                     !- Direction of Relative North {deg}
  0,                                      !- X Origin {m}
  0,                                      !- Y Origin {m}
  0,                                      !- Z Origin {m}
  {f4639d5b-3224-4500-bf20-cb7454712ad8}, !- Building Story Name
  {81583336-1487-4957-a0a9-14d884b0a8e0}, !- Thermal Zone Name
  Yes,                                    !- Part of Total Floor Area
  ,                                       !- Design Specification Outdoor Air Object Name
  ,                                       !- Building Unit Name
  Autocalculate;                          !- Volume {m3}

OS:Surface,
  {13861e28-81d3-478c-8e2b-4003e6993767}, !- Handle
  Dining_Flr_6_Floor,                     !- Name
  Floor,                                  !- Surface Type
  {b38c551f-fbe2-4ecd-80b2-4773c41067fe}, !- Construction Name
  {cb2c0215-3476-427c-ac46-083a99e88a0b}, !- Space Name
  Adiabatic,                              !- Outside Boundary Condition
  ,                                       !- Outside Boundary Condition Object
  NoSun,                                  !- Sun Exposure
  NoWind,                                 !- Wind Exposure
  ,                                       !- View Factor to Ground
  ,                                       !- Number of Vertices
  79.553, 22.86, 16.152,                  !- X,Y,Z Vertex 1 {m}
  79.553, 12.497, 16.152,                 !- X,Y,Z Vertex 2 {m}
  47.549, 12.497, 16.152,                 !- X,Y,Z Vertex 3 {m}
  47.549, 22.86, 16.152;                  !- X,Y,Z Vertex 4 {m}

OS:Connection,
  {0590fd63-4691-4559-9b38-58e973f91ed5}, !- Handle
  ,                                       !- Source Object
  11,                                     !- Outlet Port
  ,                                       !- Target Object
  2;                                      !- Inlet Port

OS:Space,
  {cb2c0215-3476-427c-ac46-083a99e88a0b}, !- Handle
  Dining_Flr_6,                           !- Name
  {1bb35fe6-816a-40d1-8884-93e01d7df849}, !- Space Type Name
  ,                                       !- Default Construction Set Name
  ,                                       !- Default Schedule Set Name
  -0,                                     !- Direction of Relative North {deg}
  0,                                      !- X Origin {m}
  0,                                      !- Y Origin {m}
  0,                                      !- Z Origin {m}
  {f4639d5b-3224-4500-bf20-cb7454712ad8}, !- Building Story Name
  {c50abce1-b8d1-4e24-9b1c-2019e3c42eff}, !- Thermal Zone Name
  Yes,                                    !- Part of Total Floor Area
  ,                                       !- Design Specification Outdoor Air Object Name
  ,                                       !- Building Unit Name
  Autocalculate;                          !- Volume {m3}

OS:Connection,
  {c2d24356-613e-45d4-82e8-c890f4fe014c}, !- Handle
  ,                                       !- Source Object
  11,                                     !- Outlet Port
  ,                                       !- Target Object
  2;                                      !- Inlet Port

OS:Space,
  {779cf315-dfdf-42f0-a7e8-758783d6bf25}, !- Handle
  Cafe_Flr_1,                             !- Name
  {f40fe49a-654e-4f93-a3ac-038c1dc5a8aa}, !- Space Type Name
  ,                                       !- Default Construction Set Name
  ,                                       !- Default Schedule Set Name
  -0,                                     !- Direction of Relative North {deg}
  0,                                      !- X Origin {m}
  0,                                      !- Y Origin {m}
  0,                                      !- Z Origin {m}
  {0e4d49ab-bfaf-4502-af98-19b90ca05d17}, !- Building Story Name
  {a8ac53c8-9dcc-4fa5-a984-9afb8cd08506}, !- Thermal Zone Name
  Yes,                                    !- Part of Total Floor Area
  ,                                       !- Design Specification Outdoor Air Object Name
  ,                                       !- Building Unit Name
  Autocalculate;                          !- Volume {m3}

OS:Surface,
  {c1a54545-58a4-4b92-ba32-c05141dc81ef}, !- Handle
  Room_1_Flr_3_Wall_West,                 !- Name
  Wall,                                   !- Surface Type
  ,                                       !- Construction Name
  {60361c47-6132-479f-892b-2ef2551c2988}, !- Space Name
  Outdoors,                               !- Outside Boundary Condition
  ,                                       !- Outside Boundary Condition Object
  SunExposed,                             !- Sun Exposure
  WindExposed,                            !- Wind Exposure
  ,                                       !- View Factor to Ground
  ,                                       !- Number of Vertices
  0, 14.326, 10.056,                      !- X,Y,Z Vertex 1 {m}
  0, 14.326, 7.008,                       !- X,Y,Z Vertex 2 {m}
  0, 5.791, 7.008,                        !- X,Y,Z Vertex 3 {m}
  0, 5.791, 10.056;                       !- X,Y,Z Vertex 4 {m}

OS:Surface,
  {6be54bcb-ecfa-4ec9-b1f3-aea68b265605}, !- Handle
  Dining_Flr_6_Wall_West,                 !- Name
  Wall,                                   !- Surface Type
  ,                                       !- Construction Name
  {cb2c0215-3476-427c-ac46-083a99e88a0b}, !- Space Name
  Surface,                                !- Outside Boundary Condition
  {74c671c7-75ec-4736-9a0f-42d18b19b908}, !- Outside Boundary Condition Object
  NoSun,                                  !- Sun Exposure
  NoWind,                                 !- Wind Exposure
  ,                                       !- View Factor to Ground
  ,                                       !- Number of Vertices
  47.549, 22.86, 19.2,                    !- X,Y,Z Vertex 1 {m}
  47.549, 22.86, 16.152,                  !- X,Y,Z Vertex 2 {m}
  47.549, 12.497, 16.152,                 !- X,Y,Z Vertex 3 {m}
  47.549, 12.497, 19.2;                   !- X,Y,Z Vertex 4 {m}

OS:Connection,
  {dfbb65e6-42f9-4dd5-bad6-588915186ead}, !- Handle
  ,                                       !- Source Object
  11,                                     !- Outlet Port
  ,                                       !- Target Object
  2;                                      !- Inlet Port

OS:Space,
  {1418486f-1953-4d9f-ae34-08fb8834ea7c}, !- Handle
  Mech_Flr_1,                             !- Name
  {1204930a-69c0-47c8-84ff-9efdcb7b2065}, !- Space Type Name
  ,                                       !- Default Construction Set Name
  ,                                       !- Default Schedule Set Name
  -0,                                     !- Direction of Relative North {deg}
  0,                                      !- X Origin {m}
  0,                                      !- Y Origin {m}
  0,                                      !- Z Origin {m}
  {0e4d49ab-bfaf-4502-af98-19b90ca05d17}, !- Building Story Name
  {9b2abdd8-4f6b-46ae-a0f2-a8b0fbcc237e}, !- Thermal Zone Name
  Yes,                                    !- Part of Total Floor Area
  ,                                       !- Design Specification Outdoor Air Object Name
  ,                                       !- Building Unit Name
  Autocalculate;                          !- Volume {m3}

OS:Surface,
  {5e50dc32-a1a5-4680-bf11-6525a8b00aec}, !- Handle
  Retail_2_Flr_1_Ceiling,                 !- Name
  RoofCeiling,                            !- Surface Type
  {b38c551f-fbe2-4ecd-80b2-4773c41067fe}, !- Construction Name
  {54b28b67-906c-4266-8d90-363643b15e57}, !- Space Name
  Adiabatic,                              !- Outside Boundary Condition
  ,                                       !- Outside Boundary Condition Object
  NoSun,                                  !- Sun Exposure
  NoWind,                                 !- Wind Exposure
  ,                                       !- View Factor to Ground
  ,                                       !- Number of Vertices
  11.582, 5.791, 3.9624,                  !- X,Y,Z Vertex 1 {m}
  11.582, 12.497, 3.9624,                 !- X,Y,Z Vertex 2 {m}
  0, 12.497, 3.9624,                      !- X,Y,Z Vertex 3 {m}
  0, 5.791, 3.9624;                       !- X,Y,Z Vertex 4 {m}

OS:Connection,
  {cfc6b852-b849-4dc9-9c52-55fc1d31c1ab}, !- Handle
  ,                                       !- Source Object
  11,                                     !- Outlet Port
  ,                                       !- Target Object
  2;                                      !- Inlet Port

OS:Space,
  {54b28b67-906c-4266-8d90-363643b15e57}, !- Handle
  Retail_2_Flr_1,                         !- Name
  {1dd83e0f-7c2e-49e8-9a77-2b3b3f609d02}, !- Space Type Name
  ,                                       !- Default Construction Set Name
  ,                                       !- Default Schedule Set Name
  -0,                                     !- Direction of Relative North {deg}
  0,                                      !- X Origin {m}
  0,                                      !- Y Origin {m}
  0,                                      !- Z Origin {m}
  {0e4d49ab-bfaf-4502-af98-19b90ca05d17}, !- Building Story Name
  {5ed3b7ce-3114-4dc7-9c9d-fa4c11e50de9}, !- Thermal Zone Name
  Yes,                                    !- Part of Total Floor Area
  ,                                       !- Design Specification Outdoor Air Object Name
  ,                                       !- Building Unit Name
  Autocalculate;                          !- Volume {m3}

OS:Connection,
  {ef6e8101-6910-4dec-a129-7a47b94969e5}, !- Handle
  ,                                       !- Source Object
  11,                                     !- Outlet Port
  ,                                       !- Target Object
  2;                                      !- Inlet Port

OS:Space,
  {99acb158-fe8d-42de-85ec-b09b0883f326}, !- Handle
  Storage_Flr_1,                          !- Name
  {3552a95b-0ad6-4df7-80c2-15d3951820ac}, !- Space Type Name
  ,                                       !- Default Construction Set Name
  ,                                       !- Default Schedule Set Name
  -0,                                     !- Direction of Relative North {deg}
  0,                                      !- X Origin {m}
  0,                                      !- Y Origin {m}
  0,                                      !- Z Origin {m}
  {0e4d49ab-bfaf-4502-af98-19b90ca05d17}, !- Building Story Name
  {75120fc8-0a72-42bb-ae2b-7d911d0fb94f}, !- Thermal Zone Name
  Yes,                                    !- Part of Total Floor Area
  ,                                       !- Design Specification Outdoor Air Object Name
  ,                                       !- Building Unit Name
  Autocalculate;                          !- Volume {m3}

OS:Surface,
  {513de9ea-0051-4257-9cdc-a25e96cfbbcb}, !- Handle
  Corridor_Flr_6_Wall_10_South,           !- Name
  Wall,                                   !- Surface Type
  ,                                       !- Construction Name
  {727f620c-8075-4586-8703-48bde7f60f5c}, !- Space Name
  Outdoors,                               !- Outside Boundary Condition
  ,                                       !- Outside Boundary Condition Object
  SunExposed,                             !- Sun Exposure
  WindExposed,                            !- Wind Exposure
  ,                                       !- View Factor to Ground
  ,                                       !- Number of Vertices
  64.922, 5.791, 19.2,                    !- X,Y,Z Vertex 1 {m}
  64.922, 5.791, 16.152,                  !- X,Y,Z Vertex 2 {m}
  81.991, 5.791, 16.152,                  !- X,Y,Z Vertex 3 {m}
  81.991, 5.791, 19.2;                    !- X,Y,Z Vertex 4 {m}

OS:Surface,
  {b07c7525-68e4-441d-9fd3-3a523914d0a1}, !- Handle
  Room_1_Flr_6_Wall_1_East,               !- Name
  Wall,                                   !- Surface Type
  ,                                       !- Construction Name
  {0de59da8-57c0-4247-98db-94f06e2019a8}, !- Space Name
  Surface,                                !- Outside Boundary Condition
  {8cfcc863-8692-441a-98ac-1f13f4ce09d5}, !- Outside Boundary Condition Object
  NoSun,                                  !- Sun Exposure
  NoWind,                                 !- Wind Exposure
  ,                                       !- View Factor to Ground
  ,                                       !- Number of Vertices
  4.572, 5.791, 19.2,                     !- X,Y,Z Vertex 1 {m}
  4.572, 5.791, 16.152,                   !- X,Y,Z Vertex 2 {m}
  4.572, 9.449, 16.152,                   !- X,Y,Z Vertex 3 {m}
  4.572, 9.449, 19.2;                     !- X,Y,Z Vertex 4 {m}

OS:Connection,
  {2f4926bd-bfec-41a6-885b-276ca15f64cd}, !- Handle
  ,                                       !- Source Object
  11,                                     !- Outlet Port
  ,                                       !- Target Object
  2;                                      !- Inlet Port

OS:Space,
  {0de59da8-57c0-4247-98db-94f06e2019a8}, !- Handle
  Room_1_Flr_6,                           !- Name
  {968adab2-f5e7-46f2-8024-73181e80f0e2}, !- Space Type Name
  ,                                       !- Default Construction Set Name
  ,                                       !- Default Schedule Set Name
  -0,                                     !- Direction of Relative North {deg}
  0,                                      !- X Origin {m}
  0,                                      !- Y Origin {m}
  0,                                      !- Z Origin {m}
  {f4639d5b-3224-4500-bf20-cb7454712ad8}, !- Building Story Name
  {2103e4d5-38b8-4b8c-ace6-c0d1578215ad}, !- Thermal Zone Name
  Yes,                                    !- Part of Total Floor Area
  ,                                       !- Design Specification Outdoor Air Object Name
  ,                                       !- Building Unit Name
  Autocalculate;                          !- Volume {m3}

OS:Surface,
  {ee353920-82ca-4e34-ba33-e311074ca69f}, !- Handle
  Kitchen_Flr_6_Wall_2_South,             !- Name
  Wall,                                   !- Surface Type
  ,                                       !- Construction Name
  {53c7fa8b-d0a9-4d59-9f72-ab5b6de28e90}, !- Space Name
  Surface,                                !- Outside Boundary Condition
  {f202c5d1-e9da-449b-8c2b-152d6fa4c82d}, !- Outside Boundary Condition Object
  NoSun,                                  !- Sun Exposure
  NoWind,                                 !- Wind Exposure
  ,                                       !- View Factor to Ground
  ,                                       !- Number of Vertices
  79.553, 12.497, 19.2,                   !- X,Y,Z Vertex 1 {m}
  79.553, 12.497, 16.152,                 !- X,Y,Z Vertex 2 {m}
  81.991, 12.497, 16.152,                 !- X,Y,Z Vertex 3 {m}
  81.991, 12.497, 19.2;                   !- X,Y,Z Vertex 4 {m}

OS:Surface,
  {0b060945-fb46-4201-aaf0-bddb9a183ad2}, !- Handle
  Corridor_Flr_3_Wall_1_West,             !- Name
  Wall,                                   !- Surface Type
  ,                                       !- Construction Name
  {1c9aeaea-a105-4381-890b-4d9f9ad931ee}, !- Space Name
  Surface,                                !- Outside Boundary Condition
  {aab7c0d5-5b9a-4a4e-8099-c532680d6184}, !- Outside Boundary Condition Object
  NoSun,                                  !- Sun Exposure
  NoWind,                                 !- Wind Exposure
  ,                                       !- View Factor to Ground
  ,                                       !- Number of Vertices
  79.858, 22.86, 10.056,                  !- X,Y,Z Vertex 1 {m}
  79.858, 22.86, 7.008,                   !- X,Y,Z Vertex 2 {m}
  79.858, 16.154, 7.008,                  !- X,Y,Z Vertex 3 {m}
  79.858, 16.154, 10.056;                 !- X,Y,Z Vertex 4 {m}

OS:Surface,
  {5f165543-3d92-4754-b4e9-1f4ac9dfdaf0}, !- Handle
  Kitchen_Flr_6_Wall_East,                !- Name
  Wall,                                   !- Surface Type
  ,                                       !- Construction Name
  {53c7fa8b-d0a9-4d59-9f72-ab5b6de28e90}, !- Space Name
  Outdoors,                               !- Outside Boundary Condition
  ,                                       !- Outside Boundary Condition Object
  SunExposed,                             !- Sun Exposure
  WindExposed,                            !- Wind Exposure
  ,                                       !- View Factor to Ground
  ,                                       !- Number of Vertices
  86.563, 5.791, 19.2,                    !- X,Y,Z Vertex 1 {m}
  86.563, 5.791, 16.152,                  !- X,Y,Z Vertex 2 {m}
  86.563, 22.86, 16.152,                  !- X,Y,Z Vertex 3 {m}
  86.563, 22.86, 19.2;                    !- X,Y,Z Vertex 4 {m}

OS:Surface,
  {8ba31644-ec77-4da4-859b-dbfdd3211676}, !- Handle
  Laundry_Flr_1_Wall_East,                !- Name
  Wall,                                   !- Surface Type
  ,                                       !- Construction Name
  {b4cff31b-2b2e-470e-b7c8-55b05f6374f6}, !- Space Name
  Outdoors,                               !- Outside Boundary Condition
  ,                                       !- Outside Boundary Condition Object
  SunExposed,                             !- Sun Exposure
  WindExposed,                            !- Wind Exposure
  ,                                       !- View Factor to Ground
  ,                                       !- Number of Vertices
  86.563, 5.791, 3.9624,                  !- X,Y,Z Vertex 1 {m}
  86.563, 5.791, 0,                       !- X,Y,Z Vertex 2 {m}
  86.563, 22.86, 0,                       !- X,Y,Z Vertex 3 {m}
  86.563, 22.86, 3.9624;                  !- X,Y,Z Vertex 4 {m}

OS:Surface,
  {53a2dd6e-afc3-44c3-848c-c61f69e5cc66}, !- Handle
  Room_2_Flr_3_Ceiling,                   !- Name
  RoofCeiling,                            !- Surface Type
  {b38c551f-fbe2-4ecd-80b2-4773c41067fe}, !- Construction Name
  {c2047396-1edf-4b9c-ae11-1e2a58aeb534}, !- Space Name
  Adiabatic,                              !- Outside Boundary Condition
  ,                                       !- Outside Boundary Condition Object
  NoSun,                                  !- Sun Exposure
  NoWind,                                 !- Wind Exposure
  ,                                       !- View Factor to Ground
  ,                                       !- Number of Vertices
  4.572, 14.326, 10.056,                  !- X,Y,Z Vertex 1 {m}
  4.572, 22.86, 10.056,                   !- X,Y,Z Vertex 2 {m}
  0, 22.86, 10.056,                       !- X,Y,Z Vertex 3 {m}
  0, 14.326, 10.056;                      !- X,Y,Z Vertex 4 {m}

OS:Connection,
  {9a1629a6-e385-4fef-92df-9842db09e4b2}, !- Handle
  ,                                       !- Source Object
  11,                                     !- Outlet Port
  ,                                       !- Target Object
  2;                                      !- Inlet Port

OS:Space,
  {c2047396-1edf-4b9c-ae11-1e2a58aeb534}, !- Handle
  Room_2_Flr_3,                           !- Name
  {968adab2-f5e7-46f2-8024-73181e80f0e2}, !- Space Type Name
  ,                                       !- Default Construction Set Name
  ,                                       !- Default Schedule Set Name
  -0,                                     !- Direction of Relative North {deg}
  0,                                      !- X Origin {m}
  0,                                      !- Y Origin {m}
  0,                                      !- Z Origin {m}
  {2053599b-ba44-402f-8dd3-3ba65307fe07}, !- Building Story Name
  {67ea1225-4af9-4828-8d50-1572f1482be3}, !- Thermal Zone Name
  Yes,                                    !- Part of Total Floor Area
  ,                                       !- Design Specification Outdoor Air Object Name
  ,                                       !- Building Unit Name
  Autocalculate;                          !- Volume {m3}

OS:Surface,
  {b4369eac-505d-4a88-bf01-f0dc75b94d66}, !- Handle
  Storage_Flr_1_Ceiling,                  !- Name
  RoofCeiling,                            !- Surface Type
  {b38c551f-fbe2-4ecd-80b2-4773c41067fe}, !- Construction Name
  {99acb158-fe8d-42de-85ec-b09b0883f326}, !- Space Name
  Adiabatic,                              !- Outside Boundary Condition
  ,                                       !- Outside Boundary Condition Object
  NoSun,                                  !- Sun Exposure
  NoWind,                                 !- Wind Exposure
  ,                                       !- View Factor to Ground
  ,                                       !- Number of Vertices
  78.943, 12.497, 3.9624,                 !- X,Y,Z Vertex 1 {m}
  78.943, 22.86, 3.9624,                  !- X,Y,Z Vertex 2 {m}
  69.799, 22.86, 3.9624,                  !- X,Y,Z Vertex 3 {m}
  69.799, 12.497, 3.9624;                 !- X,Y,Z Vertex 4 {m}

OS:Surface,
  {fdaee94d-b76a-49a0-a37f-6835aa3abafa}, !- Handle
  Room_2_Flr_6_Wall_West,                 !- Name
  Wall,                                   !- Surface Type
  ,                                       !- Construction Name
  {735c6fa8-525c-45a3-82b3-b38ec3245a8f}, !- Space Name
  Outdoors,                               !- Outside Boundary Condition
  ,                                       !- Outside Boundary Condition Object
  SunExposed,                             !- Sun Exposure
  WindExposed,                            !- Wind Exposure
  ,                                       !- View Factor to Ground
  ,                                       !- Number of Vertices
  0, 22.86, 19.2,                         !- X,Y,Z Vertex 1 {m}
  0, 22.86, 16.152,                       !- X,Y,Z Vertex 2 {m}
  0, 14.326, 16.152,                      !- X,Y,Z Vertex 3 {m}
  0, 14.326, 19.2;                        !- X,Y,Z Vertex 4 {m}

OS:Surface,
  {beaa08de-dfbc-4feb-86c1-3ea7f29199fa}, !- Handle
  Corridor_Flr_3_Wall_3_South,            !- Name
  Wall,                                   !- Surface Type
  ,                                       !- Construction Name
  {1c9aeaea-a105-4381-890b-4d9f9ad931ee}, !- Space Name
  Surface,                                !- Outside Boundary Condition
  {bcb06a09-eb3e-4a7a-9f08-d0becac6dd99}, !- Outside Boundary Condition Object
  NoSun,                                  !- Sun Exposure
  NoWind,                                 !- Wind Exposure
  ,                                       !- View Factor to Ground
  ,                                       !- Number of Vertices
  6.706, 12.497, 10.056,                  !- X,Y,Z Vertex 1 {m}
  6.706, 12.497, 7.008,                   !- X,Y,Z Vertex 2 {m}
  10.363, 12.497, 7.008,                  !- X,Y,Z Vertex 3 {m}
  10.363, 12.497, 10.056;                 !- X,Y,Z Vertex 4 {m}

OS:Surface,
  {f202c5d1-e9da-449b-8c2b-152d6fa4c82d}, !- Handle
  Corridor_Flr_6_Wall_4_North,            !- Name
  Wall,                                   !- Surface Type
  ,                                       !- Construction Name
  {727f620c-8075-4586-8703-48bde7f60f5c}, !- Space Name
  Surface,                                !- Outside Boundary Condition
  {ee353920-82ca-4e34-ba33-e311074ca69f}, !- Outside Boundary Condition Object
  NoSun,                                  !- Sun Exposure
  NoWind,                                 !- Wind Exposure
  ,                                       !- View Factor to Ground
  ,                                       !- Number of Vertices
  81.991, 12.497, 19.2,                   !- X,Y,Z Vertex 1 {m}
  81.991, 12.497, 16.152,                 !- X,Y,Z Vertex 2 {m}
  79.553, 12.497, 16.152,                 !- X,Y,Z Vertex 3 {m}
  79.553, 12.497, 19.2;                   !- X,Y,Z Vertex 4 {m}

OS:Surface,
  {210ef259-71e9-4919-a02d-9ca0ab6c5860}, !- Handle
  Banquet_Flr_6_Floor,                    !- Name
  Floor,                                  !- Surface Type
  {b38c551f-fbe2-4ecd-80b2-4773c41067fe}, !- Construction Name
  {ba3048dd-f7da-474c-bbec-d2605f9e6cc4}, !- Space Name
  Adiabatic,                              !- Outside Boundary Condition
  ,                                       !- Outside Boundary Condition Object
  NoSun,                                  !- Sun Exposure
  NoWind,                                 !- Wind Exposure
  ,                                       !- View Factor to Ground
  ,                                       !- Number of Vertices
  42.367, 22.86, 16.152,                  !- X,Y,Z Vertex 1 {m}
  42.367, 12.497, 16.152,                 !- X,Y,Z Vertex 2 {m}
  10.363, 12.497, 16.152,                 !- X,Y,Z Vertex 3 {m}
  10.363, 22.86, 16.152;                  !- X,Y,Z Vertex 4 {m}

OS:Surface,
  {2b053194-22f1-4933-8ea4-e17a1863840e}, !- Handle
  Room_4_1_Flr_3_Wall_North,              !- Name
  Wall,                                   !- Surface Type
  ,                                       !- Construction Name
  {72c99aa5-adda-4d43-8716-a054b8639a94}, !- Space Name
  Outdoors,                               !- Outside Boundary Condition
  ,                                       !- Outside Boundary Condition Object
  SunExposed,                             !- Sun Exposure
  WindExposed,                            !- Wind Exposure
  ,                                       !- View Factor to Ground
  ,                                       !- Number of Vertices
  14.021, 22.86, 10.056,                  !- X,Y,Z Vertex 1 {m}
  14.021, 22.86, 7.008,                   !- X,Y,Z Vertex 2 {m}
  10.363, 22.86, 7.008,                   !- X,Y,Z Vertex 3 {m}
  10.363, 22.86, 10.056;                  !- X,Y,Z Vertex 4 {m}

OS:Surface,
  {cf7d71e6-f4ef-40c8-a46c-72b13c07336e}, !- Handle
  Room_1_Flr_6_Ceiling,                   !- Name
  RoofCeiling,                            !- Surface Type
  ,                                       !- Construction Name
  {0de59da8-57c0-4247-98db-94f06e2019a8}, !- Space Name
  Outdoors,                               !- Outside Boundary Condition
  ,                                       !- Outside Boundary Condition Object
  SunExposed,                             !- Sun Exposure
  WindExposed,                            !- Wind Exposure
  ,                                       !- View Factor to Ground
  ,                                       !- Number of Vertices
  4.572, 5.791, 19.2,                     !- X,Y,Z Vertex 1 {m}
  4.572, 14.326, 19.2,                    !- X,Y,Z Vertex 2 {m}
  0, 14.326, 19.2,                        !- X,Y,Z Vertex 3 {m}
  0, 5.791, 19.2;                         !- X,Y,Z Vertex 4 {m}

OS:Surface,
  {4aa72038-7727-4edf-9cc6-ae6177728485}, !- Handle
  Retail_2_Flr_1_Wall_North,              !- Name
  Wall,                                   !- Surface Type
  ,                                       !- Construction Name
  {54b28b67-906c-4266-8d90-363643b15e57}, !- Space Name
  Surface,                                !- Outside Boundary Condition
  {ef763fb2-367c-49fc-9da4-9038fde893fe}, !- Outside Boundary Condition Object
  NoSun,                                  !- Sun Exposure
  NoWind,                                 !- Wind Exposure
  ,                                       !- View Factor to Ground
  ,                                       !- Number of Vertices
  11.582, 12.497, 3.9624,                 !- X,Y,Z Vertex 1 {m}
  11.582, 12.497, 0,                      !- X,Y,Z Vertex 2 {m}
  0, 12.497, 0,                           !- X,Y,Z Vertex 3 {m}
  0, 12.497, 3.9624;                      !- X,Y,Z Vertex 4 {m}

OS:Surface,
  {f022de67-b364-4496-a17c-508c289ad12a}, !- Handle
  Room_5_Flr_3_Wall_West,                 !- Name
  Wall,                                   !- Surface Type
  ,                                       !- Construction Name
  {f220e1f3-aa91-4513-9f9a-e8dd4a412b4d}, !- Space Name
  Surface,                                !- Outside Boundary Condition
  {3555610c-c00d-4c05-8f24-61af780e90e7}, !- Outside Boundary Condition Object
  NoSun,                                  !- Sun Exposure
  NoWind,                                 !- Wind Exposure
  ,                                       !- View Factor to Ground
  ,                                       !- Number of Vertices
  81.991, 14.326, 10.056,                 !- X,Y,Z Vertex 1 {m}
  81.991, 14.326, 7.008,                  !- X,Y,Z Vertex 2 {m}
  81.991, 5.791, 7.008,                   !- X,Y,Z Vertex 3 {m}
  81.991, 5.791, 10.056;                  !- X,Y,Z Vertex 4 {m}

OS:Surface,
  {2d68abc0-59d1-4be1-a1b8-f0d7820a5f5f}, !- Handle
  Corridor_Flr_6_Wall_3_West,             !- Name
  Wall,                                   !- Surface Type
  ,                                       !- Construction Name
  {727f620c-8075-4586-8703-48bde7f60f5c}, !- Space Name
  Surface,                                !- Outside Boundary Condition
  {1d7535ed-8bda-461b-aec2-a757ffe57c44}, !- Outside Boundary Condition Object
  NoSun,                                  !- Sun Exposure
  NoWind,                                 !- Wind Exposure
  ,                                       !- View Factor to Ground
  ,                                       !- Number of Vertices
  42.367, 22.86, 19.2,                    !- X,Y,Z Vertex 1 {m}
  42.367, 22.86, 16.152,                  !- X,Y,Z Vertex 2 {m}
  42.367, 12.497, 16.152,                 !- X,Y,Z Vertex 3 {m}
  42.367, 12.497, 19.2;                   !- X,Y,Z Vertex 4 {m}

OS:Surface,
  {d35f239f-e2d0-49a8-a2ce-9e4aaebcd33e}, !- Handle
  Room_6_Flr_3_Wall_West,                 !- Name
  Wall,                                   !- Surface Type
  ,                                       !- Construction Name
  {43edd94b-1dd2-4c9a-87d9-1a557847cf2c}, !- Space Name
  Surface,                                !- Outside Boundary Condition
  {c8182734-59d8-4875-aff7-58d242d7e0e0}, !- Outside Boundary Condition Object
  NoSun,                                  !- Sun Exposure
  NoWind,                                 !- Wind Exposure
  ,                                       !- View Factor to Ground
  ,                                       !- Number of Vertices
  81.991, 22.86, 10.056,                  !- X,Y,Z Vertex 1 {m}
  81.991, 22.86, 7.008,                   !- X,Y,Z Vertex 2 {m}
  81.991, 14.326, 7.008,                  !- X,Y,Z Vertex 3 {m}
  81.991, 14.326, 10.056;                 !- X,Y,Z Vertex 4 {m}

OS:Surface,
  {1d7535ed-8bda-461b-aec2-a757ffe57c44}, !- Handle
  Banquet_Flr_6_Wall_East,                !- Name
  Wall,                                   !- Surface Type
  ,                                       !- Construction Name
  {ba3048dd-f7da-474c-bbec-d2605f9e6cc4}, !- Space Name
  Surface,                                !- Outside Boundary Condition
  {2d68abc0-59d1-4be1-a1b8-f0d7820a5f5f}, !- Outside Boundary Condition Object
  NoSun,                                  !- Sun Exposure
  NoWind,                                 !- Wind Exposure
  ,                                       !- View Factor to Ground
  ,                                       !- Number of Vertices
  42.367, 12.497, 19.2,                   !- X,Y,Z Vertex 1 {m}
  42.367, 12.497, 16.152,                 !- X,Y,Z Vertex 2 {m}
  42.367, 22.86, 16.152,                  !- X,Y,Z Vertex 3 {m}
  42.367, 22.86, 19.2;                    !- X,Y,Z Vertex 4 {m}

OS:Surface,
  {2ce3fa8e-2831-43d3-ac32-ae151a787401}, !- Handle
  Room_2_Flr_6_Wall_South,                !- Name
  Wall,                                   !- Surface Type
  ,                                       !- Construction Name
  {735c6fa8-525c-45a3-82b3-b38ec3245a8f}, !- Space Name
  Surface,                                !- Outside Boundary Condition
  {3c1aa61b-f5e1-4632-bfeb-68b6223d6cdc}, !- Outside Boundary Condition Object
  NoSun,                                  !- Sun Exposure
  NoWind,                                 !- Wind Exposure
  ,                                       !- View Factor to Ground
  ,                                       !- Number of Vertices
  0, 14.326, 19.2,                        !- X,Y,Z Vertex 1 {m}
  0, 14.326, 16.152,                      !- X,Y,Z Vertex 2 {m}
  4.572, 14.326, 16.152,                  !- X,Y,Z Vertex 3 {m}
  4.572, 14.326, 19.2;                    !- X,Y,Z Vertex 4 {m}

OS:Surface,
  {e821dfdf-467e-4492-860e-4a13c86bd75e}, !- Handle
  Corridor_Flr_3_Wall_4_West,             !- Name
  Wall,                                   !- Surface Type
  ,                                       !- Construction Name
  {1c9aeaea-a105-4381-890b-4d9f9ad931ee}, !- Space Name
  Surface,                                !- Outside Boundary Condition
  {2b0dd343-b5f5-47c3-bf29-58c94b741b28}, !- Outside Boundary Condition Object
  NoSun,                                  !- Sun Exposure
  NoWind,                                 !- Wind Exposure
  ,                                       !- View Factor to Ground
  ,                                       !- Number of Vertices
  4.572, 22.86, 10.056,                   !- X,Y,Z Vertex 1 {m}
  4.572, 22.86, 7.008,                    !- X,Y,Z Vertex 2 {m}
  4.572, 14.326, 7.008,                   !- X,Y,Z Vertex 3 {m}
  4.572, 14.326, 10.056;                  !- X,Y,Z Vertex 4 {m}

OS:Surface,
  {17dfdcba-c50f-4091-8cba-dcea3fa04678}, !- Handle
  Room_5_Flr_3_Floor,                     !- Name
  Floor,                                  !- Surface Type
  {b38c551f-fbe2-4ecd-80b2-4773c41067fe}, !- Construction Name
  {f220e1f3-aa91-4513-9f9a-e8dd4a412b4d}, !- Space Name
  Adiabatic,                              !- Outside Boundary Condition
  ,                                       !- Outside Boundary Condition Object
  NoSun,                                  !- Sun Exposure
  NoWind,                                 !- Wind Exposure
  ,                                       !- View Factor to Ground
  ,                                       !- Number of Vertices
  86.563, 14.326, 7.008,                  !- X,Y,Z Vertex 1 {m}
  86.563, 5.791, 7.008,                   !- X,Y,Z Vertex 2 {m}
  81.991, 5.791, 7.008,                   !- X,Y,Z Vertex 3 {m}
  81.991, 14.326, 7.008;                  !- X,Y,Z Vertex 4 {m}

OS:Surface,
  {7f756235-7db4-405e-ab5b-05eff39817d4}, !- Handle
  Kitchen_Flr_6_Wall_2_West,              !- Name
  Wall,                                   !- Surface Type
  ,                                       !- Construction Name
  {53c7fa8b-d0a9-4d59-9f72-ab5b6de28e90}, !- Space Name
  Surface,                                !- Outside Boundary Condition
  {c1690369-c030-4b65-88d1-44583822deaf}, !- Outside Boundary Condition Object
  NoSun,                                  !- Sun Exposure
  NoWind,                                 !- Wind Exposure
  ,                                       !- View Factor to Ground
  ,                                       !- Number of Vertices
  79.553, 22.86, 19.2,                    !- X,Y,Z Vertex 1 {m}
  79.553, 22.86, 16.152,                  !- X,Y,Z Vertex 2 {m}
  79.553, 12.497, 16.152,                 !- X,Y,Z Vertex 3 {m}
  79.553, 12.497, 19.2;                   !- X,Y,Z Vertex 4 {m}

OS:Surface,
  {cb9a3a4f-b8e4-4a27-843a-8d1886b91c11}, !- Handle
  Lobby_Flr_1_Wall_3_East,                !- Name
  Wall,                                   !- Surface Type
  ,                                       !- Construction Name
  {5f877673-6afe-4f1f-960f-7e78d281ff4b}, !- Space Name
  Surface,                                !- Outside Boundary Condition
  {f8bd3ee2-eb32-4f86-8652-6b7400ce65b3}, !- Outside Boundary Condition Object
  NoSun,                                  !- Sun Exposure
  NoWind,                                 !- Wind Exposure
  ,                                       !- View Factor to Ground
  ,                                       !- Number of Vertices
  81.991, 5.791, 3.9624,                  !- X,Y,Z Vertex 1 {m}
  81.991, 5.791, 0,                       !- X,Y,Z Vertex 2 {m}
  81.991, 22.86, 0,                       !- X,Y,Z Vertex 3 {m}
  81.991, 22.86, 3.9624;                  !- X,Y,Z Vertex 4 {m}

OS:Surface,
  {3e1f6fab-5da8-4429-850a-554b47078add}, !- Handle
  Room_1_Flr_6_Wall_South,                !- Name
  Wall,                                   !- Surface Type
  ,                                       !- Construction Name
  {0de59da8-57c0-4247-98db-94f06e2019a8}, !- Space Name
  Outdoors,                               !- Outside Boundary Condition
  ,                                       !- Outside Boundary Condition Object
  SunExposed,                             !- Sun Exposure
  WindExposed,                            !- Wind Exposure
  ,                                       !- View Factor to Ground
  ,                                       !- Number of Vertices
  0, 5.791, 19.2,                         !- X,Y,Z Vertex 1 {m}
  0, 5.791, 16.152,                       !- X,Y,Z Vertex 2 {m}
  4.572, 5.791, 16.152,                   !- X,Y,Z Vertex 3 {m}
  4.572, 5.791, 19.2;                     !- X,Y,Z Vertex 4 {m}

OS:Surface,
  {7479edd6-8b8d-418b-9640-ee6cc4e0ea14}, !- Handle
  Room_6_Flr_3_Floor,                     !- Name
  Floor,                                  !- Surface Type
  {b38c551f-fbe2-4ecd-80b2-4773c41067fe}, !- Construction Name
  {43edd94b-1dd2-4c9a-87d9-1a557847cf2c}, !- Space Name
  Adiabatic,                              !- Outside Boundary Condition
  ,                                       !- Outside Boundary Condition Object
  NoSun,                                  !- Sun Exposure
  NoWind,                                 !- Wind Exposure
  ,                                       !- View Factor to Ground
  ,                                       !- Number of Vertices
  86.563, 22.86, 7.008,                   !- X,Y,Z Vertex 1 {m}
  86.563, 14.326, 7.008,                  !- X,Y,Z Vertex 2 {m}
  81.991, 14.326, 7.008,                  !- X,Y,Z Vertex 3 {m}
  81.991, 22.86, 7.008;                   !- X,Y,Z Vertex 4 {m}

OS:Surface,
  {274c7a29-1623-46cd-8382-62d8ea74d1ac}, !- Handle
  Retail_1_Flr_1_Ceiling,                 !- Name
  RoofCeiling,                            !- Surface Type
  ,                                       !- Construction Name
  {1a878509-17bb-4788-a93c-b231afdbd395}, !- Space Name
  Outdoors,                               !- Outside Boundary Condition
  ,                                       !- Outside Boundary Condition Object
  SunExposed,                             !- Sun Exposure
  WindExposed,                            !- Wind Exposure
  ,                                       !- View Factor to Ground
  ,                                       !- Number of Vertices
  11.582, 0, 3.9624,                      !- X,Y,Z Vertex 1 {m}
  11.582, 5.791, 3.9624,                  !- X,Y,Z Vertex 2 {m}
  0, 5.791, 3.9624,                       !- X,Y,Z Vertex 3 {m}
  0, 0, 3.9624;                           !- X,Y,Z Vertex 4 {m}

OS:Surface,
  {e251d8a8-d1e0-412d-a8f1-e9eaa6dad57a}, !- Handle
  Basement_Floor,                         !- Name
  Floor,                                  !- Surface Type
  {6ebfcfc7-81a3-4917-8918-d0f21aaea898}, !- Construction Name
  {e8215437-4d6e-4194-81a3-8e59d7aab856}, !- Space Name
  Foundation,                             !- Outside Boundary Condition
  {85965ff9-a2d9-48e9-b10b-f46dcd70669a}, !- Outside Boundary Condition Object
  NoSun,                                  !- Sun Exposure
  NoWind,                                 !- Wind Exposure
  ,                                       !- View Factor to Ground
  ,                                       !- Number of Vertices
  86.563, 22.86, -2.439,                  !- X,Y,Z Vertex 1 {m}
  86.563, 0, -2.439,                      !- X,Y,Z Vertex 2 {m}
  0, 0, -2.439,                           !- X,Y,Z Vertex 3 {m}
  0, 22.86, -2.439;                       !- X,Y,Z Vertex 4 {m}

OS:Surface,
  {692d00bb-7d9c-4c1b-8d72-c2570d5ccc8c}, !- Handle
  Lobby_Flr_1_Wall_4_North,               !- Name
  Wall,                                   !- Surface Type
  ,                                       !- Construction Name
  {5f877673-6afe-4f1f-960f-7e78d281ff4b}, !- Space Name
  Surface,                                !- Outside Boundary Condition
  {14a6da0a-ed6d-4e52-a7e9-de32beffd3d0}, !- Outside Boundary Condition Object
  NoSun,                                  !- Sun Exposure
  NoWind,                                 !- Wind Exposure
  ,                                       !- View Factor to Ground
  ,                                       !- Number of Vertices
  78.943, 12.497, 3.9624,                 !- X,Y,Z Vertex 1 {m}
  78.943, 12.497, 0,                      !- X,Y,Z Vertex 2 {m}
  69.799, 12.497, 0,                      !- X,Y,Z Vertex 3 {m}
  69.799, 12.497, 3.9624;                 !- X,Y,Z Vertex 4 {m}

OS:Surface,
  {891e583d-31fa-4e2c-a75e-bfc4ce0c77b3}, !- Handle
  Kitchen_Flr_6_Floor,                    !- Name
  Floor,                                  !- Surface Type
  {b38c551f-fbe2-4ecd-80b2-4773c41067fe}, !- Construction Name
  {53c7fa8b-d0a9-4d59-9f72-ab5b6de28e90}, !- Space Name
  Adiabatic,                              !- Outside Boundary Condition
  ,                                       !- Outside Boundary Condition Object
  NoSun,                                  !- Sun Exposure
  NoWind,                                 !- Wind Exposure
  ,                                       !- View Factor to Ground
  ,                                       !- Number of Vertices
  86.563, 22.86, 16.152,                  !- X,Y,Z Vertex 1 {m}
  86.563, 5.791, 16.152,                  !- X,Y,Z Vertex 2 {m}
  81.991, 5.791, 16.152,                  !- X,Y,Z Vertex 3 {m}
  81.991, 12.497, 16.152,                 !- X,Y,Z Vertex 4 {m}
  79.553, 12.497, 16.152,                 !- X,Y,Z Vertex 5 {m}
  79.553, 22.86, 16.152;                  !- X,Y,Z Vertex 6 {m}

OS:Surface,
  {e69b9328-831a-4395-80b6-bb2acd8bbe91}, !- Handle
  Mech_Flr_1_Wall_East,                   !- Name
  Wall,                                   !- Surface Type
  ,                                       !- Construction Name
  {1418486f-1953-4d9f-ae34-08fb8834ea7c}, !- Space Name
  Surface,                                !- Outside Boundary Condition
  {833bcdf3-65a5-4164-9ecc-1beb9f0eaded}, !- Outside Boundary Condition Object
  NoSun,                                  !- Sun Exposure
  NoWind,                                 !- Wind Exposure
  ,                                       !- View Factor to Ground
  ,                                       !- Number of Vertices
  69.799, 12.497, 3.9624,                 !- X,Y,Z Vertex 1 {m}
  69.799, 12.497, 0,                      !- X,Y,Z Vertex 2 {m}
  69.799, 22.86, 0,                       !- X,Y,Z Vertex 3 {m}
  69.799, 22.86, 3.9624;                  !- X,Y,Z Vertex 4 {m}

OS:Surface,
  {90914b80-119d-4577-84b5-6b94d4142544}, !- Handle
  Room_6_Flr_3_Wall_South,                !- Name
  Wall,                                   !- Surface Type
  ,                                       !- Construction Name
  {43edd94b-1dd2-4c9a-87d9-1a557847cf2c}, !- Space Name
  Surface,                                !- Outside Boundary Condition
  {092b94c2-3b7d-46ce-9cb9-f4af36859b94}, !- Outside Boundary Condition Object
  NoSun,                                  !- Sun Exposure
  NoWind,                                 !- Wind Exposure
  ,                                       !- View Factor to Ground
  ,                                       !- Number of Vertices
  81.991, 14.326, 10.056,                 !- X,Y,Z Vertex 1 {m}
  81.991, 14.326, 7.008,                  !- X,Y,Z Vertex 2 {m}
  86.563, 14.326, 7.008,                  !- X,Y,Z Vertex 3 {m}
  86.563, 14.326, 10.056;                 !- X,Y,Z Vertex 4 {m}

OS:Surface,
  {98aeb424-2280-4300-92de-cf851e3b800b}, !- Handle
  Room_1_Flr_3_Ceiling,                   !- Name
  RoofCeiling,                            !- Surface Type
  {b38c551f-fbe2-4ecd-80b2-4773c41067fe}, !- Construction Name
  {60361c47-6132-479f-892b-2ef2551c2988}, !- Space Name
  Adiabatic,                              !- Outside Boundary Condition
  ,                                       !- Outside Boundary Condition Object
  NoSun,                                  !- Sun Exposure
  NoWind,                                 !- Wind Exposure
  ,                                       !- View Factor to Ground
  ,                                       !- Number of Vertices
  4.572, 5.791, 10.056,                   !- X,Y,Z Vertex 1 {m}
  4.572, 14.326, 10.056,                  !- X,Y,Z Vertex 2 {m}
  0, 14.326, 10.056,                      !- X,Y,Z Vertex 3 {m}
  0, 5.791, 10.056;                       !- X,Y,Z Vertex 4 {m}

OS:Surface,
  {41291f20-d018-46cb-8ce5-01d01fd4d407}, !- Handle
  Retail_1_Flr_1_Wall_South,              !- Name
  Wall,                                   !- Surface Type
  ,                                       !- Construction Name
  {1a878509-17bb-4788-a93c-b231afdbd395}, !- Space Name
  Outdoors,                               !- Outside Boundary Condition
  ,                                       !- Outside Boundary Condition Object
  SunExposed,                             !- Sun Exposure
  WindExposed,                            !- Wind Exposure
  ,                                       !- View Factor to Ground
  ,                                       !- Number of Vertices
  0, 0, 3.9624,                           !- X,Y,Z Vertex 1 {m}
  0, 0, 0,                                !- X,Y,Z Vertex 2 {m}
  11.582, 0, 0,                           !- X,Y,Z Vertex 3 {m}
  11.582, 0, 3.9624;                      !- X,Y,Z Vertex 4 {m}

OS:Surface,
  {b671b948-8463-4bc6-8ed1-0b357756f53b}, !- Handle
  Corridor_Flr_3_Ceiling_3,               !- Name
  RoofCeiling,                            !- Surface Type
  {b38c551f-fbe2-4ecd-80b2-4773c41067fe}, !- Construction Name
  {1c9aeaea-a105-4381-890b-4d9f9ad931ee}, !- Space Name
  Adiabatic,                              !- Outside Boundary Condition
  ,                                       !- Outside Boundary Condition Object
  NoSun,                                  !- Sun Exposure
  NoWind,                                 !- Wind Exposure
  ,                                       !- View Factor to Ground
  ,                                       !- Number of Vertices
  81.991, 5.791, 10.056,                  !- X,Y,Z Vertex 1 {m}
  81.991, 22.86, 10.056,                  !- X,Y,Z Vertex 2 {m}
  79.858, 22.86, 10.056,                  !- X,Y,Z Vertex 3 {m}
  79.858, 16.154, 10.056,                 !- X,Y,Z Vertex 4 {m}
  76.2, 16.154, 10.056,                   !- X,Y,Z Vertex 5 {m}
  76.2, 5.791, 10.056;                    !- X,Y,Z Vertex 6 {m}

OS:Surface,
  {da245e39-6b1f-4ed4-b290-d9f76d671e5d}, !- Handle
  Corridor_Flr_3_Ceiling_1,               !- Name
  RoofCeiling,                            !- Surface Type
  {b38c551f-fbe2-4ecd-80b2-4773c41067fe}, !- Construction Name
  {1c9aeaea-a105-4381-890b-4d9f9ad931ee}, !- Space Name
  Adiabatic,                              !- Outside Boundary Condition
  ,                                       !- Outside Boundary Condition Object
  NoSun,                                  !- Sun Exposure
  NoWind,                                 !- Wind Exposure
  ,                                       !- View Factor to Ground
  ,                                       !- Number of Vertices
  6.706, 5.791, 10.056,                   !- X,Y,Z Vertex 1 {m}
  6.706, 12.497, 10.056,                  !- X,Y,Z Vertex 2 {m}
  10.363, 12.497, 10.056,                 !- X,Y,Z Vertex 3 {m}
  10.363, 22.86, 10.056,                  !- X,Y,Z Vertex 4 {m}
  4.572, 22.86, 10.056,                   !- X,Y,Z Vertex 5 {m}
  4.572, 5.791, 10.056;                   !- X,Y,Z Vertex 6 {m}

OS:Surface,
  {ee3f979b-1599-412e-8f0f-539b0e6ce30c}, !- Handle
  Laundry_Flr_1_Ceiling,                  !- Name
  RoofCeiling,                            !- Surface Type
  {b38c551f-fbe2-4ecd-80b2-4773c41067fe}, !- Construction Name
  {b4cff31b-2b2e-470e-b7c8-55b05f6374f6}, !- Space Name
  Adiabatic,                              !- Outside Boundary Condition
  ,                                       !- Outside Boundary Condition Object
  NoSun,                                  !- Sun Exposure
  NoWind,                                 !- Wind Exposure
  ,                                       !- View Factor to Ground
  ,                                       !- Number of Vertices
  86.563, 5.791, 3.9624,                  !- X,Y,Z Vertex 1 {m}
  86.563, 22.86, 3.9624,                  !- X,Y,Z Vertex 2 {m}
  81.991, 22.86, 3.9624,                  !- X,Y,Z Vertex 3 {m}
  81.991, 5.791, 3.9624;                  !- X,Y,Z Vertex 4 {m}

OS:Surface,
  {d3f64410-de6f-416b-b862-f40a951bfc93}, !- Handle
  Room_2_Flr_6_Wall_North,                !- Name
  Wall,                                   !- Surface Type
  ,                                       !- Construction Name
[...]
  0.5,                                    !- Output Value 1 {BasedOnField A5}
  0.5;                                    !- Output Value 2 {BasedOnField A5}

OS:ModelObjectList,
  {5ea8d198-7a89-477e-a98f-fd3c60c38deb}, !- Handle
  Table Lookup 1 Independent Variable List 30, !- Name
  {3e7df675-ea27-4fce-b3c1-1e35f88cf13f}; !- Model Object 1

OS:Table:Lookup,
  {e18b7e01-c30a-4c79-aa04-b7a51b045127}, !- Handle
  sys_4|mixed|shr>none|sc>dx|sh>c-e|ssf>cv|zh>b-hw|zc>none|srf>none| ERV_LatCoolEff 1, !- Name
  {ae72654e-b082-4a6d-958b-f2717886f06c}, !- Independent Variable List Name
  DivisorOnly,                            !- Normalization Method
  0.5,                                    !- Normalization Divisor
  0,                                      !- Minimum Output {BasedOnField A5}
  10,                                     !- Maximum Output {BasedOnField A5}
  Dimensionless,                          !- Output Unit Type
  ,                                       !- External File Name
  ,                                       !- External File Column Number
  ,                                       !- External File Starting Row Number
  0.5,                                    !- Output Value 1 {BasedOnField A5}
  0.5;                                    !- Output Value 2 {BasedOnField A5}

OS:ModelObjectList,
  {ae72654e-b082-4a6d-958b-f2717886f06c}, !- Handle
  Table Lookup 1 Independent Variable List 31, !- Name
  {fb9a8420-e26c-4b7a-8edb-585e2ab17809}; !- Model Object 1

OS:Table:Lookup,
  {d3bc6f3b-5400-45ed-8e2b-04299b13c2ec}, !- Handle
  sys_3|mixed|shr>none|sc>dx|sh>c-e|ssf>cv|zh>b-hw|zc>none|srf>none| 1 ERV_SensHeatEff 1, !- Name
  {fb7dc93c-b1c4-4dc7-b9b3-56c640cc01ea}, !- Independent Variable List Name
  DivisorOnly,                            !- Normalization Method
  0.5,                                    !- Normalization Divisor
  0,                                      !- Minimum Output {BasedOnField A5}
  10,                                     !- Maximum Output {BasedOnField A5}
  Dimensionless,                          !- Output Unit Type
  ,                                       !- External File Name
  ,                                       !- External File Column Number
  ,                                       !- External File Starting Row Number
  0.5,                                    !- Output Value 1 {BasedOnField A5}
  0.5;                                    !- Output Value 2 {BasedOnField A5}

OS:ModelObjectList,
  {fb7dc93c-b1c4-4dc7-b9b3-56c640cc01ea}, !- Handle
  Table Lookup 1 Independent Variable List 32, !- Name
  {b5b4c231-2547-47c8-b944-55935fc44c3f}; !- Model Object 1

OS:Table:Lookup,
  {6771f9f8-45d3-4357-a3df-2ec4bb0dedbb}, !- Handle
  sys_3|mixed|shr>none|sc>dx|sh>c-e|ssf>cv|zh>b-hw|zc>none|srf>none| 1 ERV_LatHeatEff 1, !- Name
  {45399731-1342-44d4-8b05-4f47686c6a15}, !- Independent Variable List Name
  DivisorOnly,                            !- Normalization Method
  0.5,                                    !- Normalization Divisor
  0,                                      !- Minimum Output {BasedOnField A5}
  10,                                     !- Maximum Output {BasedOnField A5}
  Dimensionless,                          !- Output Unit Type
  ,                                       !- External File Name
  ,                                       !- External File Column Number
  ,                                       !- External File Starting Row Number
  0.5,                                    !- Output Value 1 {BasedOnField A5}
  0.5;                                    !- Output Value 2 {BasedOnField A5}

OS:ModelObjectList,
  {45399731-1342-44d4-8b05-4f47686c6a15}, !- Handle
  Table Lookup 1 Independent Variable List 33, !- Name
  {2eb40250-92b6-4b7f-9bd0-7e0a0dabcfb6}; !- Model Object 1

OS:Table:Lookup,
  {ea4167c5-d7b0-4702-bd54-aa6250bbc14d}, !- Handle
  sys_3|mixed|shr>none|sc>dx|sh>c-e|ssf>cv|zh>b-hw|zc>none|srf>none| 1 ERV_SensCoolEff 1, !- Name
  {16ba147f-63c4-4bb9-8dca-84211258b9c5}, !- Independent Variable List Name
  DivisorOnly,                            !- Normalization Method
  0.5,                                    !- Normalization Divisor
  0,                                      !- Minimum Output {BasedOnField A5}
  10,                                     !- Maximum Output {BasedOnField A5}
  Dimensionless,                          !- Output Unit Type
  ,                                       !- External File Name
  ,                                       !- External File Column Number
  ,                                       !- External File Starting Row Number
  0.5,                                    !- Output Value 1 {BasedOnField A5}
  0.5;                                    !- Output Value 2 {BasedOnField A5}

OS:ModelObjectList,
  {16ba147f-63c4-4bb9-8dca-84211258b9c5}, !- Handle
  Table Lookup 1 Independent Variable List 34, !- Name
  {e2eecdb5-64b3-4d58-8721-c7b4bad5c0ba}; !- Model Object 1

OS:Table:Lookup,
  {afc307b4-8c4c-47e3-b295-220840013028}, !- Handle
  sys_3|mixed|shr>none|sc>dx|sh>c-e|ssf>cv|zh>b-hw|zc>none|srf>none| 1 ERV_LatCoolEff 1, !- Name
  {cf448780-753e-44a9-a8ad-79c880d16b97}, !- Independent Variable List Name
  DivisorOnly,                            !- Normalization Method
  0.5,                                    !- Normalization Divisor
  0,                                      !- Minimum Output {BasedOnField A5}
  10,                                     !- Maximum Output {BasedOnField A5}
  Dimensionless,                          !- Output Unit Type
  ,                                       !- External File Name
  ,                                       !- External File Column Number
  ,                                       !- External File Starting Row Number
  0.5,                                    !- Output Value 1 {BasedOnField A5}
  0.5;                                    !- Output Value 2 {BasedOnField A5}

OS:ModelObjectList,
  {cf448780-753e-44a9-a8ad-79c880d16b97}, !- Handle
  Table Lookup 1 Independent Variable List 35, !- Name
  {ee384bfd-a60d-4554-98f5-6ddb00f1c39b}; !- Model Object 1

OS:Table:Lookup,
  {2ff48ecd-6c2e-4842-9e8b-f4619fd0ac78}, !- Handle
  sys_3|mixed|shr>none|sc>dx|sh>c-e|ssf>cv|zh>b-hw|zc>none|srf>none| ERV_SensHeatEff 1, !- Name
  {499770bd-da92-43e6-9372-fa205604b41b}, !- Independent Variable List Name
  DivisorOnly,                            !- Normalization Method
  0.5,                                    !- Normalization Divisor
  0,                                      !- Minimum Output {BasedOnField A5}
  10,                                     !- Maximum Output {BasedOnField A5}
  Dimensionless,                          !- Output Unit Type
  ,                                       !- External File Name
  ,                                       !- External File Column Number
  ,                                       !- External File Starting Row Number
  0.5,                                    !- Output Value 1 {BasedOnField A5}
  0.5;                                    !- Output Value 2 {BasedOnField A5}

OS:ModelObjectList,
  {499770bd-da92-43e6-9372-fa205604b41b}, !- Handle
  Table Lookup 1 Independent Variable List 36, !- Name
  {1f229d29-fdab-4727-b77a-1e0ec707674a}; !- Model Object 1

OS:Table:Lookup,
  {edad76f9-d9a5-4099-8a02-d973f0100928}, !- Handle
  sys_3|mixed|shr>none|sc>dx|sh>c-e|ssf>cv|zh>b-hw|zc>none|srf>none| ERV_LatHeatEff 1, !- Name
  {50cc01db-5d52-4635-a4e1-fbe4d883c3bd}, !- Independent Variable List Name
  DivisorOnly,                            !- Normalization Method
  0.5,                                    !- Normalization Divisor
  0,                                      !- Minimum Output {BasedOnField A5}
  10,                                     !- Maximum Output {BasedOnField A5}
  Dimensionless,                          !- Output Unit Type
  ,                                       !- External File Name
  ,                                       !- External File Column Number
  ,                                       !- External File Starting Row Number
  0.5,                                    !- Output Value 1 {BasedOnField A5}
  0.5;                                    !- Output Value 2 {BasedOnField A5}

OS:ModelObjectList,
  {50cc01db-5d52-4635-a4e1-fbe4d883c3bd}, !- Handle
  Table Lookup 1 Independent Variable List 37, !- Name
  {4883fd56-b3a7-49a5-807c-af39156195df}; !- Model Object 1

OS:Table:Lookup,
  {10bd2ffb-97cd-4ba4-8f99-88d08e88199e}, !- Handle
  sys_3|mixed|shr>none|sc>dx|sh>c-e|ssf>cv|zh>b-hw|zc>none|srf>none| ERV_SensCoolEff 1, !- Name
  {4767dc84-56ba-44dc-8acf-e77cab8b85cf}, !- Independent Variable List Name
  DivisorOnly,                            !- Normalization Method
  0.5,                                    !- Normalization Divisor
  0,                                      !- Minimum Output {BasedOnField A5}
  10,                                     !- Maximum Output {BasedOnField A5}
  Dimensionless,                          !- Output Unit Type
  ,                                       !- External File Name
  ,                                       !- External File Column Number
  ,                                       !- External File Starting Row Number
  0.5,                                    !- Output Value 1 {BasedOnField A5}
  0.5;                                    !- Output Value 2 {BasedOnField A5}

OS:ModelObjectList,
  {4767dc84-56ba-44dc-8acf-e77cab8b85cf}, !- Handle
  Table Lookup 1 Independent Variable List 38, !- Name
  {5b0ba439-42ac-4fa2-b801-874840c7a0e9}; !- Model Object 1

OS:Table:Lookup,
  {d5059f95-92f7-4e55-97cf-1255a596a906}, !- Handle
  sys_3|mixed|shr>none|sc>dx|sh>c-e|ssf>cv|zh>b-hw|zc>none|srf>none| ERV_LatCoolEff 1, !- Name
  {3f7cee47-32d5-4fcc-8b52-f96046f77876}, !- Independent Variable List Name
  DivisorOnly,                            !- Normalization Method
  0.5,                                    !- Normalization Divisor
  0,                                      !- Minimum Output {BasedOnField A5}
  10,                                     !- Maximum Output {BasedOnField A5}
  Dimensionless,                          !- Output Unit Type
  ,                                       !- External File Name
  ,                                       !- External File Column Number
  ,                                       !- External File Starting Row Number
  0.5,                                    !- Output Value 1 {BasedOnField A5}
  0.5;                                    !- Output Value 2 {BasedOnField A5}

OS:ModelObjectList,
  {3f7cee47-32d5-4fcc-8b52-f96046f77876}, !- Handle
  Table Lookup 1 Independent Variable List 39, !- Name
  {70b312b3-2fb7-4f24-97e7-03180e2f18b5}; !- Model Object 1

OS:Table:Lookup,
  {04857549-c5ef-4519-9f26-66e35df19700}, !- Handle
  sys_6|mixed|shr>none|sh>c-e|sc>c-chw|ssf>vv|zh>b-hw|zc>none|srf>vv| ERV_SensHeatEff 1, !- Name
  {a9493850-4ef5-496d-97a3-9c7be50963dd}, !- Independent Variable List Name
  DivisorOnly,                            !- Normalization Method
  0.5,                                    !- Normalization Divisor
  0,                                      !- Minimum Output {BasedOnField A5}
  10,                                     !- Maximum Output {BasedOnField A5}
  Dimensionless,                          !- Output Unit Type
  ,                                       !- External File Name
  ,                                       !- External File Column Number
  ,                                       !- External File Starting Row Number
  0.5,                                    !- Output Value 1 {BasedOnField A5}
  0.5;                                    !- Output Value 2 {BasedOnField A5}

OS:ModelObjectList,
  {a9493850-4ef5-496d-97a3-9c7be50963dd}, !- Handle
  Table Lookup 1 Independent Variable List 40, !- Name
  {65d43480-8cab-4933-a76d-64cc1e42d3c0}; !- Model Object 1

OS:Table:Lookup,
  {935917ae-b67f-4757-bf97-3856e8a5149f}, !- Handle
  sys_6|mixed|shr>none|sh>c-e|sc>c-chw|ssf>vv|zh>b-hw|zc>none|srf>vv| ERV_LatHeatEff 1, !- Name
  {7b51fe46-b8ef-441b-9fd6-3d504394a400}, !- Independent Variable List Name
  DivisorOnly,                            !- Normalization Method
  0.5,                                    !- Normalization Divisor
  0,                                      !- Minimum Output {BasedOnField A5}
  10,                                     !- Maximum Output {BasedOnField A5}
  Dimensionless,                          !- Output Unit Type
  ,                                       !- External File Name
  ,                                       !- External File Column Number
  ,                                       !- External File Starting Row Number
  0.5,                                    !- Output Value 1 {BasedOnField A5}
  0.5;                                    !- Output Value 2 {BasedOnField A5}

OS:ModelObjectList,
  {7b51fe46-b8ef-441b-9fd6-3d504394a400}, !- Handle
  Table Lookup 1 Independent Variable List 41, !- Name
  {c9e63c5a-9ba9-491f-bfc5-2035bfa4b6d2}; !- Model Object 1

OS:Table:Lookup,
  {fb802735-b38f-4bf9-8c70-c397b7501257}, !- Handle
  sys_6|mixed|shr>none|sh>c-e|sc>c-chw|ssf>vv|zh>b-hw|zc>none|srf>vv| ERV_SensCoolEff 1, !- Name
  {7b735c0e-5a59-4a5b-a670-e6bf6dad2b1d}, !- Independent Variable List Name
  DivisorOnly,                            !- Normalization Method
  0.5,                                    !- Normalization Divisor
  0,                                      !- Minimum Output {BasedOnField A5}
  10,                                     !- Maximum Output {BasedOnField A5}
  Dimensionless,                          !- Output Unit Type
  ,                                       !- External File Name
  ,                                       !- External File Column Number
  ,                                       !- External File Starting Row Number
  0.5,                                    !- Output Value 1 {BasedOnField A5}
  0.5;                                    !- Output Value 2 {BasedOnField A5}

OS:ModelObjectList,
  {7b735c0e-5a59-4a5b-a670-e6bf6dad2b1d}, !- Handle
  Table Lookup 1 Independent Variable List 42, !- Name
  {420297a4-d6e7-4fff-8bac-9347b034496f}; !- Model Object 1

OS:Table:Lookup,
  {2b8f6b32-18e3-4266-b80f-75bd56c1b341}, !- Handle
  sys_6|mixed|shr>none|sh>c-e|sc>c-chw|ssf>vv|zh>b-hw|zc>none|srf>vv| ERV_LatCoolEff 1, !- Name
  {e5da9460-5d24-4a07-89d1-55459984d362}, !- Independent Variable List Name
  DivisorOnly,                            !- Normalization Method
  0.5,                                    !- Normalization Divisor
  0,                                      !- Minimum Output {BasedOnField A5}
  10,                                     !- Maximum Output {BasedOnField A5}
  Dimensionless,                          !- Output Unit Type
  ,                                       !- External File Name
  ,                                       !- External File Column Number
  ,                                       !- External File Starting Row Number
  0.5,                                    !- Output Value 1 {BasedOnField A5}
  0.5;                                    !- Output Value 2 {BasedOnField A5}

OS:ModelObjectList,
  {e5da9460-5d24-4a07-89d1-55459984d362}, !- Handle
  Table Lookup 1 Independent Variable List 43, !- Name
  {98892a88-30ee-4317-a74e-5a0810b9e51b}; !- Model Object 1

OS:Table:Lookup,
  {080970d9-a918-436f-bb78-f0ea9f9aa929}, !- Handle
  sys_1|doas|shr>none|sc>dx|sh>c-hw|ssf>cv|zh>b-hw|zc>ptac|srf>none| ERV_SensHeatEff 1, !- Name
  {38c6798d-da67-4739-86ba-565710cd7aae}, !- Independent Variable List Name
  DivisorOnly,                            !- Normalization Method
  0.5,                                    !- Normalization Divisor
  0,                                      !- Minimum Output {BasedOnField A5}
  10,                                     !- Maximum Output {BasedOnField A5}
  Dimensionless,                          !- Output Unit Type
  ,                                       !- External File Name
  ,                                       !- External File Column Number
  ,                                       !- External File Starting Row Number
  0.5,                                    !- Output Value 1 {BasedOnField A5}
  0.5;                                    !- Output Value 2 {BasedOnField A5}

OS:ModelObjectList,
  {38c6798d-da67-4739-86ba-565710cd7aae}, !- Handle
  Table Lookup 1 Independent Variable List 44, !- Name
  {24844eba-b3d9-4306-bbd9-2235823d229a}; !- Model Object 1

OS:Table:Lookup,
  {7c2bcaef-51cc-4d66-85c8-40f77ce978bd}, !- Handle
  sys_1|doas|shr>none|sc>dx|sh>c-hw|ssf>cv|zh>b-hw|zc>ptac|srf>none| ERV_LatHeatEff 1, !- Name
  {0d0ea987-c0b3-48a9-bc38-189427b1d8a4}, !- Independent Variable List Name
  DivisorOnly,                            !- Normalization Method
  0.5,                                    !- Normalization Divisor
  0,                                      !- Minimum Output {BasedOnField A5}
  10,                                     !- Maximum Output {BasedOnField A5}
  Dimensionless,                          !- Output Unit Type
  ,                                       !- External File Name
  ,                                       !- External File Column Number
  ,                                       !- External File Starting Row Number
  0.5,                                    !- Output Value 1 {BasedOnField A5}
  0.5;                                    !- Output Value 2 {BasedOnField A5}

OS:ModelObjectList,
  {0d0ea987-c0b3-48a9-bc38-189427b1d8a4}, !- Handle
  Table Lookup 1 Independent Variable List, !- Name
  {c2598271-db50-4d88-a261-66c0960a493a}; !- Model Object 1

OS:Table:Lookup,
  {ffdd63cd-bfd6-40f2-b06c-4d93a805f086}, !- Handle
  sys_1|doas|shr>none|sc>dx|sh>c-hw|ssf>cv|zh>b-hw|zc>ptac|srf>none| ERV_SensCoolEff 1, !- Name
  {36e30ead-c3a0-4365-a561-e2d0f66d57c8}, !- Independent Variable List Name
  DivisorOnly,                            !- Normalization Method
  0.5,                                    !- Normalization Divisor
  0,                                      !- Minimum Output {BasedOnField A5}
  10,                                     !- Maximum Output {BasedOnField A5}
  Dimensionless,                          !- Output Unit Type
  ,                                       !- External File Name
  ,                                       !- External File Column Number
  ,                                       !- External File Starting Row Number
  0.5,                                    !- Output Value 1 {BasedOnField A5}
  0.5;                                    !- Output Value 2 {BasedOnField A5}

OS:ModelObjectList,
  {36e30ead-c3a0-4365-a561-e2d0f66d57c8}, !- Handle
  Table Lookup 1 Independent Variable List 45, !- Name
  {11d4b060-3bbb-40e1-819d-956b02e8bff5}; !- Model Object 1

OS:Table:Lookup,
  {31c36ada-6fa4-4fd2-b515-3c8982972588}, !- Handle
  sys_1|doas|shr>none|sc>dx|sh>c-hw|ssf>cv|zh>b-hw|zc>ptac|srf>none| ERV_LatCoolEff 1, !- Name
  {833c4351-204b-4513-a6cf-e5d6d0940ba2}, !- Independent Variable List Name
  DivisorOnly,                            !- Normalization Method
  0.5,                                    !- Normalization Divisor
  0,                                      !- Minimum Output {BasedOnField A5}
  10,                                     !- Maximum Output {BasedOnField A5}
  Dimensionless,                          !- Output Unit Type
  ,                                       !- External File Name
  ,                                       !- External File Column Number
  ,                                       !- External File Starting Row Number
  0.5,                                    !- Output Value 1 {BasedOnField A5}
  0.5;                                    !- Output Value 2 {BasedOnField A5}

OS:ModelObjectList,
  {833c4351-204b-4513-a6cf-e5d6d0940ba2}, !- Handle
  Table Lookup 1 Independent Variable List 46, !- Name
  {1e12d392-c9ea-4c53-be14-b527842613cc}; !- Model Object 1

